#	Name: ASD04590999
#	Creating user name:	WinNT
#	Creation time:	15. 06. 2019 20:51

#	Modifying user name:	WinNT
#	Modification time:	15. 06. 2019 20:51

#	Program:	/corina/corina34_cracker 3.40 0067  02.08.2006

@<TRIPOS>MOLECULE
ASD04590999
  79   83    0    0    0
SMALL
NO_CHARGES


@<TRIPOS>ATOM
   1 N1            -2.2840    -2.7869    -0.7859 N.ar    
   2 C2            -1.0930    -2.2069    -0.7582 C.ar    
   3 N3             0.0253    -2.9104    -0.8516 N.ar    
   4 C4            -0.0153    -4.2330    -0.9772 C.ar    
   5 C5            -1.2568    -4.8730    -1.0094 C.ar    
   6 C6            -2.3988    -4.1011    -0.9090 C.ar    
   7 N7             1.1573    -4.9668    -1.0752 N.pl3   
   8 C8             1.5898    -5.7408     0.0055 C.ar    
   9 C9             2.6949    -6.5712    -0.1312 C.ar    
  10 C10            0.9190    -5.6769     1.2201 C.ar    
  11 C11            1.3489    -6.4430     2.2858 C.ar    
  12 C12            2.4462    -7.2726     2.1448 C.ar    
  13 C13            3.1196    -7.3346     0.9385 C.ar    
  14 C14            1.9428    -4.9308    -2.3113 C.3     
  15 N15           -1.0156    -0.8299    -0.6288 N.pl3   
  16 C16           -2.1829    -0.0561    -0.6657 C.ar    
  17 C17           -3.3879    -0.5965    -0.2366 C.ar    
  18 C18           -4.5385     0.1659    -0.2734 C.ar    
  19 C19           -4.4905     1.4734    -0.7392 C.ar    
  20 C20           -3.2852     2.0139    -1.1678 C.ar    
  21 C21           -2.1337     1.2530    -1.1261 C.ar    
  22 N22           -5.6568     2.2460    -0.7769 N.3     
  23 C23            1.0702    -5.3845    -3.4834 C.3     
  24 C24            1.8906    -5.3469    -4.7743 C.3     
  25 C25            2.3805    -3.9195    -5.0259 C.3     
  26 C26            3.2531    -3.4659    -3.8538 C.3     
  27 C27            2.4328    -3.5034    -2.5628 C.3     
  28 C28           -5.3808     3.5904    -1.3008 C.3     
  29 C29           -6.7030     4.3401    -1.4963 C.3     
  30 N30           -7.4503     4.3074    -0.2299 N.am    
  31 C31           -7.6486     3.0069     0.4277 C.3     
  32 C32           -6.2892     2.3097     0.5474 C.3     
  33 Br33          -1.3719    -6.7521    -1.1871 Br      
  34 O34           -8.6222     5.3888     1.4733 O.3     
  35 C35           -9.1214     6.6465     1.9998 C.3     
  36 C36          -10.0788     7.2789     0.9877 C.3     
  37 C37           -9.8636     6.3910     3.3131 C.3     
  38 C38           -7.9479     7.5949     2.2533 C.3     
  39 C39           -7.9407     5.4392     0.3133 C.2     
  40 O40           -7.7678     6.5051    -0.2440 O.2     
  41 H41           -3.3743    -4.5642    -0.9302 H       
  42 H42            3.2212    -6.6201    -1.0730 H       
  43 H43            0.0623    -5.0287     1.3312 H       
  44 H44            0.8277    -6.3938     3.2304 H       
  45 H45            2.7806    -7.8704     2.9798 H       
  46 H46            3.9762    -7.9836     0.8316 H       
  47 H47            2.7997    -5.5978    -2.2168 H       
  48 H48           -0.1532    -0.4014    -0.5125 H       
  49 H49           -3.4253    -1.6133     0.1256 H       
  50 H50           -5.4759    -0.2546     0.0596 H       
  51 H51           -3.2478     3.0307    -1.5300 H       
  52 H52           -1.1963     1.6735    -1.4591 H       
  53 H53            0.7212    -6.4014    -3.3042 H       
  54 H54            0.2133    -4.7176    -3.5779 H       
  55 H55            2.7475    -6.0139    -4.6798 H       
  56 H56            1.2689    -5.6702    -5.6093 H       
  57 H57            2.9650    -3.8928    -5.9456 H       
  58 H58            1.5236    -3.2526    -5.1204 H       
  59 H59            4.1100    -4.1328    -3.7593 H       
  60 H60            3.6022    -2.4489    -4.0330 H       
  61 H61            1.5758    -2.8365    -2.6573 H       
  62 H62            3.0544    -3.1802    -1.7278 H       
  63 H63           -4.7550     4.1350    -0.5938 H       
  64 H64           -4.8640     3.5091    -2.2570 H       
  65 H65           -6.4998     5.3741    -1.7750 H       
  66 H66           -7.2867     3.8550    -2.2786 H       
  67 H67           -8.0706     3.1594     1.4210 H       
  68 H68           -8.3232     2.3936    -0.1696 H       
  69 H69           -6.4311     1.2996     0.9317 H       
  70 H70           -5.6508     2.8721     1.2288 H       
  71 H71          -10.9149     6.6032     0.8071 H       
  72 H72          -10.4536     8.2231     1.3829 H       
  73 H73           -9.5501     7.4610     0.0521 H       
  74 H74           -9.1815     5.9404     4.0342 H       
  75 H75          -10.2383     7.3351     3.7083 H       
  76 H76          -10.6996     5.7153     3.1325 H       
  77 H77           -7.4192     7.7770     1.3177 H       
  78 H78           -8.3227     8.5391     2.6485 H       
  79 H79           -7.2659     7.1444     2.9743 H       
@<TRIPOS>BOND
   1    1    2 ar
   2    1    6 ar
   3    2    3 ar
   4    2   15 1
   5    3    4 ar
   6    4    5 ar
   7    4    7 1
   8    5    6 ar
   9    5   33 1
  10    6   41 1
  11    7    8 1
  12    7   14 1
  13    8    9 ar
  14    8   10 ar
  15    9   13 ar
  16    9   42 1
  17   10   11 ar
  18   10   43 1
  19   11   12 ar
  20   11   44 1
  21   12   13 ar
  22   12   45 1
  23   13   46 1
  24   14   23 1
  25   14   27 1
  26   14   47 1
  27   15   16 1
  28   15   48 1
  29   16   17 ar
  30   16   21 ar
  31   17   18 ar
  32   17   49 1
  33   18   19 ar
  34   18   50 1
  35   19   20 ar
  36   19   22 1
  37   20   21 ar
  38   20   51 1
  39   21   52 1
  40   22   28 1
  41   22   32 1
  42   23   24 1
  43   23   53 1
  44   23   54 1
  45   24   25 1
  46   24   55 1
  47   24   56 1
  48   25   26 1
  49   25   57 1
  50   25   58 1
  51   26   27 1
  52   26   59 1
  53   26   60 1
  54   27   61 1
  55   27   62 1
  56   28   29 1
  57   28   63 1
  58   28   64 1
  59   29   30 1
  60   29   65 1
  61   29   66 1
  62   30   31 1
  63   30   39 am
  64   31   32 1
  65   31   67 1
  66   31   68 1
  67   32   69 1
  68   32   70 1
  69   34   35 1
  70   34   39 1
  71   35   36 1
  72   35   37 1
  73   35   38 1
  74   36   71 1
  75   36   72 1
  76   36   73 1
  77   37   74 1
  78   37   75 1
  79   37   76 1
  80   38   77 1
  81   38   78 1
  82   38   79 1
  83   39   40 2

#	End of record

