#	Name: ASD01915846
#	Creating user name:	WinNT
#	Creation time:	15. 06. 2019 20:06

#	Modifying user name:	WinNT
#	Modification time:	15. 06. 2019 20:06

#	Program:	/corina/corina34_cracker 3.40 0067  02.08.2006

@<TRIPOS>MOLECULE
ASD01915846
  30   32    0    0    0
SMALL
NO_CHARGES


@<TRIPOS>ATOM
   1 C1            -0.0166     1.3736     0.0096 C.2     
   2 N2             0.0021    -0.0041     0.0020 N.pl3   
   3 C3            -1.2451    -0.7770     0.0110 C.3     
   4 C4            -2.3226     0.0138     0.7509 C.3     
   5 N5            -2.3981     1.4042     0.3186 N.am    
   6 C6            -1.2846     2.1200     0.0203 C.2     
   7 C7             1.2836     1.7913    -0.0006 C.2     
   8 C8             2.0431     0.6135    -0.0147 C.2     
   9 N9             1.2130    -0.4035    -0.0125 N.2     
  10 C10            3.5477     0.5294    -0.0304 C.3     
  11 O11            4.0985     1.8479    -0.0286 O.3     
  12 C12            5.4520     1.9504    -0.0417 C.ar    
  13 O13           -1.3315     3.3121    -0.2164 O.2     
  14 C14            6.0738     3.1965    -0.0411 C.ar    
  15 C15            6.2542     0.8120    -0.0502 C.ar    
  16 C16            7.6261     0.9583    -0.0630 C.ar    
  17 N17            8.1783     2.1568    -0.0671 N.ar    
  18 C18            7.4521     3.2585    -0.0542 C.ar    
  19 H19           -3.2670     1.8279     0.2388 H       
  20 H20           -1.5673    -0.9600    -1.0141 H       
  21 H21           -1.0801    -1.7283     0.5167 H       
  22 H22           -3.2884    -0.4612     0.5784 H       
  23 H23           -2.1064    -0.0112     1.8189 H       
  24 H24            1.6474     2.8081     0.0018 H       
  25 H25            3.8907    -0.0089     0.8532 H       
  26 H26            3.8728     0.0010    -0.9266 H       
  27 H27            5.4852     4.1020    -0.0309 H       
  28 H28            5.8086    -0.1717    -0.0465 H       
  29 H29            8.2559     0.0809    -0.0693 H       
  30 H30            7.9426     4.2206    -0.0581 H       
@<TRIPOS>BOND
   1    1    2 1
   2    1    7 2
   3    1    6 1
   4    2    3 1
   5    2    9 1
   6    3    4 1
   7    3   20 1
   8    3   21 1
   9    4    5 1
  10    4   22 1
  11    4   23 1
  12    5    6 am
  13    5   19 1
  14    6   13 2
  15    7    8 1
  16    7   24 1
  17    8    9 2
  18    8   10 1
  19   10   11 1
  20   10   25 1
  21   10   26 1
  22   11   12 1
  23   12   14 ar
  24   12   15 ar
  25   14   18 ar
  26   14   27 1
  27   15   16 ar
  28   15   28 1
  29   16   17 ar
  30   16   29 1
  31   17   18 ar
  32   18   30 1

#	End of record

