#	Name: ASD09740175
#	Creating user name:	WinNT
#	Creation time:	15. 06. 2019 21:22

#	Modifying user name:	WinNT
#	Modification time:	15. 06. 2019 21:22

#	Program:	/corina/corina34_cracker 3.40 0067  02.08.2006

@<TRIPOS>MOLECULE
ASD09740175
  42   44    0    0    0
SMALL
NO_CHARGES


@<TRIPOS>ATOM
   1 O1            -0.0144     1.2085     0.0087 O.3     
   2 N2             0.0021    -0.0041     0.0020 N.2     
   3 C3             1.2414     1.6826    -0.0008 C.2     
   4 N4             2.0457     0.6354    -0.0141 N.2     
   5 C5             1.2343    -0.4424    -0.0121 C.2     
   6 C6             1.6617    -1.8648    -0.0234 C.ar    
   7 C7             1.6459     3.1030     0.0030 C.ar    
   8 C8             0.7217    -2.8937    -0.0200 C.ar    
   9 C9             3.0182    -2.2064    -0.0436 C.ar    
  10 C10            3.3764    -3.5376    -0.0541 C.ar    
  11 N11            2.4602    -4.4877    -0.0457 N.ar    
  12 C12            1.1655    -4.2109    -0.0314 C.ar    
  13 C13            2.9995     3.4450    -0.0086 C.ar    
  14 C14            3.3756     4.7716    -0.0050 C.ar    
  15 C15            2.4115     5.7692     0.0101 C.ar    
  16 C16            1.0584     5.4347     0.0218 C.ar    
  17 C17            0.6749     4.1074     0.0124 C.ar    
  18 N18            0.2403    -5.2486    -0.0231 N.pl3   
  19 O19            2.7871     7.0749     0.0140 O.3     
  20 C20            4.4167     8.8595     0.0086 C.3     
  21 C21            4.1900     7.3464     0.0020 C.3     
  22 O22            0.1157     6.4148     0.0366 O.3     
  23 C23           -2.1586     7.2319     0.0639 C.3     
  24 C24           -1.2517     5.9997     0.0480 C.3     
  25 H25           -0.3351    -2.6711    -0.0083 H       
  26 H26            3.7756    -1.4366    -0.0513 H       
  27 H27            4.4221    -3.8071    -0.0697 H       
  28 H28            3.7520     2.6704    -0.0200 H       
  29 H29            4.4230     5.0347    -0.0137 H       
  30 H30           -0.3732     3.8468     0.0214 H       
  31 H31            0.5445    -6.1696    -0.0278 H       
  32 H32           -0.7094    -5.0515    -0.0125 H       
  33 H33            3.9537     9.3001    -0.8744 H       
  34 H34            3.9710     9.2898     0.9054 H       
  35 H35            5.4868     9.0667    -0.0006 H       
  36 H36            4.6530     6.9059     0.8850 H       
  37 H37            4.6357     6.9162    -0.8949 H       
  38 H38           -1.9512     7.8241     0.9551 H       
  39 H39           -1.9690     7.8340    -0.8247 H       
  40 H40           -3.2015     6.9153     0.0725 H       
  41 H41           -1.4590     5.4075    -0.8433 H       
  42 H42           -1.4412     5.3976     0.9365 H       
@<TRIPOS>BOND
   1    1    2 1
   2    1    3 1
   3    2    5 2
   4    3    4 2
   5    3    7 1
   6    4    5 1
   7    5    6 1
   8    6    8 ar
   9    6    9 ar
  10    7   13 ar
  11    7   17 ar
  12    8   12 ar
  13    8   25 1
  14    9   10 ar
  15    9   26 1
  16   10   11 ar
  17   10   27 1
  18   11   12 ar
  19   12   18 1
  20   13   14 ar
  21   13   28 1
  22   14   15 ar
  23   14   29 1
  24   15   16 ar
  25   15   19 1
  26   16   17 ar
  27   16   22 1
  28   17   30 1
  29   18   31 1
  30   18   32 1
  31   19   21 1
  32   20   21 1
  33   20   33 1
  34   20   34 1
  35   20   35 1
  36   21   36 1
  37   21   37 1
  38   22   24 1
  39   23   24 1
  40   23   38 1
  41   23   39 1
  42   23   40 1
  43   24   41 1
  44   24   42 1

#	End of record

