#	Name: ASD01420021
#	Creating user name:	WinNT
#	Creation time:	15. 06. 2019 19:20

#	Modifying user name:	WinNT
#	Modification time:	15. 06. 2019 19:20

#	Program:	/corina/corina34_cracker 3.40 0067  02.08.2006

@<TRIPOS>MOLECULE
ASD01420021
  22   22    0    0    0
SMALL
NO_CHARGES


@<TRIPOS>ATOM
   1 C1            -0.0168     1.3843     0.0097 C.ar    
   2 C2             0.0021    -0.0041     0.0020 C.ar    
   3 C3             1.2136    -0.6785    -0.0132 C.ar    
   4 C4             2.3989     0.0321    -0.0207 C.ar    
   5 C5             2.3781     1.4142    -0.0131 C.ar    
   6 C6             1.1716     2.0900     0.0021 C.ar    
   7 C7             3.6724     2.1860    -0.0208 C.3     
   8 C8             3.7156    -0.7007    -0.0367 C.3     
   9 O9            -1.1650    -0.7009     0.0099 O.3     
  10 C10           -1.0694    -2.1266     0.0013 C.3     
  11 Cl11          -1.5312     2.2328     0.0214 Cl      
  12 H12            1.2309    -1.7583    -0.0188 H       
  13 H13            1.1580     3.1699     0.0080 H       
  14 H14            3.9751     2.3776    -1.0502 H       
  15 H15            3.5335     3.1337     0.4995 H       
  16 H16            4.4449     1.6049     0.4829 H       
  17 H17            4.0234    -0.8722    -1.0681 H       
  18 H18            4.4706    -0.1024     0.4731 H       
  19 H19            3.6050    -1.6577     0.4734 H       
  20 H20           -0.5236    -2.4595     0.8841 H       
  21 H21           -2.0704    -2.5580     0.0089 H       
  22 H22           -0.5412    -2.4500    -0.8957 H       
@<TRIPOS>BOND
   1    1    2 ar
   2    1    6 ar
   3    1   11 1
   4    2    3 ar
   5    2    9 1
   6    3    4 ar
   7    3   12 1
   8    4    5 ar
   9    4    8 1
  10    5    6 ar
  11    5    7 1
  12    6   13 1
  13    7   14 1
  14    7   15 1
  15    7   16 1
  16    8   17 1
  17    8   18 1
  18    8   19 1
  19    9   10 1
  20   10   20 1
  21   10   21 1
  22   10   22 1

#	End of record

