#	Name: ASD03091666
#	Creating user name:	WinNT
#	Creation time:	15. 06. 2019 20:31

#	Modifying user name:	WinNT
#	Modification time:	15. 06. 2019 20:31

#	Program:	/corina/corina34_cracker 3.40 0067  02.08.2006

@<TRIPOS>MOLECULE
ASD03091666
  54   57    0    0    0
SMALL
NO_CHARGES


@<TRIPOS>ATOM
   1 Cl1            0.0000     0.0000     0.0000 Cl      
   2 H2             0.0000     1.3700     0.0000 H       
   3 C3            14.6078    10.3831     6.7873 C.ar    
   4 C4            14.6215     9.0016     7.0160 C.ar    
   5 C5            15.8355     8.3389     7.2261 C.ar    
   6 C6            17.0120     9.0264     7.2108 C.ar    
   7 C7            17.0191    10.4034     6.9851 C.ar    
   8 C8            15.8402    11.0799     6.7747 C.ar    
   9 S9            12.9737     8.3833     6.9813 S.3     
  10 C10           12.3265     9.9833     6.6642 C.2     
  11 C11           13.3102    10.8868     6.6027 C.2     
  12 C12           10.8987    10.2892     6.4956 C.2     
  13 O13           10.5431    11.4319     6.2775 O.2     
  14 N14            9.9835     9.3036     6.5826 N.am    
  15 N15            6.8940     9.1566     8.1508 N.3     
  16 C16            7.9731    10.0700     7.7515 C.3     
  17 C17            8.5604     9.6085     6.4146 C.3     
  18 C18            7.8157     8.3488     5.9552 C.3     
  19 C19            6.3254     8.6848     5.8164 C.3     
  20 C20            5.8000     9.1712     7.1699 C.3     
  21 C21            7.4034     7.7928     8.3502 C.3     
  22 C22            7.9751     7.2667     7.0307 C.3     
  23 N23           18.2337    11.1006     6.9722 N.am    
  24 C24           19.3392    10.5190     6.4661 C.2     
  25 O25           19.3027     9.3607     6.0989 O.2     
  26 C26           20.5959    11.2896     6.3575 C.ar    
  27 C27           21.7426    10.6903     5.8338 C.ar    
  28 C28           22.9123    11.4151     5.7353 C.ar    
  29 C29           22.9503    12.7333     6.1542 C.ar    
  30 C30           21.8172    13.3333     6.6743 C.ar    
  31 C31           20.6396    12.6215     6.7730 C.ar    
  32 H32           15.8403     7.2734     7.4023 H       
  33 H33           17.9427     8.5034     7.3743 H       
  34 H34           15.8546    12.1457     6.6003 H       
  35 H35           13.1199    11.9333     6.4158 H       
  36 H36           10.2670     8.3924     6.7565 H       
  37 H37            7.5747    11.0789     7.6447 H       
  38 H38            8.7535    10.0655     8.5124 H       
  39 H39            8.4390    10.3962     5.6709 H       
  40 H40            8.2131     8.0057     5.0000 H       
  41 H41            6.1959     9.4694     5.0710 H       
  42 H42            5.7771     7.7937     5.5106 H       
  43 H43            5.0000     8.5123     7.5076 H       
  44 H44            5.4166    10.1864     7.0677 H       
  45 H45            8.1875     7.8045     9.1073 H       
  46 H46            6.5903     7.1452     8.6782 H       
  47 H47            7.4334     6.3700     6.7297 H       
  48 H48            9.0318     7.0316     7.1584 H       
  49 H49           18.2793    12.0020     7.3276 H       
  50 H50           21.7144     9.6614     5.5068 H       
  51 H51           23.8003    10.9526     5.3306 H       
  52 H52           23.8686    13.2962     6.0752 H       
  53 H53           21.8536    14.3625     6.9995 H       
  54 H54           19.7559    13.0911     7.1791 H       
@<TRIPOS>BOND
   1    1    2 1
   2    3    4 ar
   3    3    8 ar
   4    3   11 1
   5    4    5 ar
   6    4    9 1
   7    5    6 ar
   8    5   32 1
   9    6    7 ar
  10    6   33 1
  11    7    8 ar
  12    7   23 1
  13    8   34 1
  14    9   10 1
  15   10   11 2
  16   10   12 1
  17   11   35 1
  18   12   13 2
  19   12   14 am
  20   14   17 1
  21   14   36 1
  22   15   16 1
  23   15   20 1
  24   15   21 1
  25   16   17 1
  26   16   37 1
  27   16   38 1
  28   17   18 1
  29   17   39 1
  30   18   19 1
  31   18   22 1
  32   18   40 1
  33   19   20 1
  34   19   41 1
  35   19   42 1
  36   20   43 1
  37   20   44 1
  38   21   22 1
  39   21   45 1
  40   21   46 1
  41   22   47 1
  42   22   48 1
  43   23   24 am
  44   23   49 1
  45   24   25 2
  46   24   26 1
  47   26   27 ar
  48   26   31 ar
  49   27   28 ar
  50   27   50 1
  51   28   29 ar
  52   28   51 1
  53   29   30 ar
  54   29   52 1
  55   30   31 ar
  56   30   53 1
  57   31   54 1

#	End of record

