#	Name: ASD03330429
#	Creating user name:	WinNT
#	Creation time:	15. 06. 2019 20:37

#	Modifying user name:	WinNT
#	Modification time:	15. 06. 2019 20:37

#	Program:	/corina/corina34_cracker 3.40 0067  02.08.2006

@<TRIPOS>MOLECULE
ASD03330429
  52   55    0    0    0
SMALL
NO_CHARGES


@<TRIPOS>ATOM
   1 C1            -0.5802     2.0015    -0.8074 C.3     
   2 N2            -0.6359     0.5424    -0.6419 N.3     
   3 C3            -0.0353    -0.1486    -1.7972 C.3     
   4 C4             1.3152     0.4674    -2.0567 C.2     
   5 N5             1.7138     1.6633    -1.5337 N.pl3   
   6 C6             0.8683     2.4865    -0.6646 C.3     
   7 C7             2.3414    -0.0030    -2.8082 C.2     
   8 N8             3.3493     0.8972    -2.7372 N.2     
   9 C9             2.9780     1.8997    -1.9722 C.2     
  10 C10            3.7983     3.0855    -1.6439 C.ar    
  11 C11            2.3566    -1.2669    -3.5648 C.2     
  12 O12            1.3837    -1.9965    -3.5496 O.2     
  13 C13            3.5043    -2.8553    -4.9027 C.ar    
  14 N14            3.4488    -1.6147    -4.2739 N.am    
  15 C15           -2.0155     0.0904    -0.4170 C.3     
  16 C16            3.8944     3.5274    -0.3238 C.ar    
  17 C17            4.6608     4.6338    -0.0233 C.ar    
  18 C18            5.3349     5.3079    -1.0283 C.ar    
  19 C19            5.2446     4.8765    -2.3401 C.ar    
  20 C20            4.4851     3.7649    -2.6535 C.ar    
  21 F21            4.3970     3.3439    -3.9342 F       
  22 Cl22           6.2968     6.7000    -0.6407 Cl      
  23 C23            4.7261    -3.5368    -5.0112 C.ar    
  24 C24            2.3501    -3.4272    -5.4207 C.ar    
  25 C25            2.4074    -4.6578    -6.0436 C.ar    
  26 C26            3.6130    -5.3306    -6.1574 C.ar    
  27 C27            4.7682    -4.7808    -5.6445 C.ar    
  28 C28            5.9586    -2.9427    -4.4601 C.2     
  29 O29            5.9028    -1.9088    -3.8224 O.2     
  30 N30            7.1467    -3.5457    -4.6633 N.am    
  31 C31            8.3708    -2.9557    -4.1159 C.3     
  32 H32           -0.9559     2.2686    -1.7952 H       
  33 H33           -1.1980     2.4765    -0.0454 H       
  34 H34            0.0803    -1.2091    -1.5731 H       
  35 H35           -0.6718    -0.0236    -2.6732 H       
  36 H36            0.9378     3.5316    -0.9665 H       
  37 H37            1.1915     2.3800     0.3709 H       
  38 H38            4.1961    -1.0005    -4.3460 H       
  39 H39           -2.6474     0.4300    -1.2377 H       
  40 H40           -2.0377    -0.9983    -0.3678 H       
  41 H41           -2.3850     0.5041     0.5212 H       
  42 H42            3.3691     3.0039     0.4614 H       
  43 H43            4.7353     4.9760     0.9984 H       
  44 H44            5.7719     5.4065    -3.1195 H       
  45 H45            1.4064    -2.9089    -5.3360 H       
  46 H46            1.5068    -5.0990    -6.4444 H       
  47 H47            3.6472    -6.2929    -6.6465 H       
  48 H48            5.7055    -5.3095    -5.7358 H       
  49 H49            7.1913    -4.3705    -5.1719 H       
  50 H50            8.5086    -1.9564    -4.5289 H       
  51 H51            8.2898    -2.8923    -3.0308 H       
  52 H52            9.2247    -3.5793    -4.3807 H       
@<TRIPOS>BOND
   1    1    2 1
   2    1    6 1
   3    1   32 1
   4    1   33 1
   5    2    3 1
   6    2   15 1
   7    3    4 1
   8    3   34 1
   9    3   35 1
  10    4    5 1
  11    4    7 2
  12    5    6 1
  13    5    9 1
  14    6   36 1
  15    6   37 1
  16    7    8 1
  17    7   11 1
  18    8    9 2
  19    9   10 1
  20   10   16 ar
  21   10   20 ar
  22   11   12 2
  23   11   14 am
  24   13   14 1
  25   13   23 ar
  26   13   24 ar
  27   14   38 1
  28   15   39 1
  29   15   40 1
  30   15   41 1
  31   16   17 ar
  32   16   42 1
  33   17   18 ar
  34   17   43 1
  35   18   19 ar
  36   18   22 1
  37   19   20 ar
  38   19   44 1
  39   20   21 1
  40   23   28 1
  41   23   27 ar
  42   24   25 ar
  43   24   45 1
  44   25   26 ar
  45   25   46 1
  46   26   27 ar
  47   26   47 1
  48   27   48 1
  49   28   29 2
  50   28   30 am
  51   30   31 1
  52   30   49 1
  53   31   50 1
  54   31   51 1
  55   31   52 1

#	End of record

