#	Name: ASD01410348
#	Creating user name:	WinNT
#	Creation time:	15. 06. 2019 19:17

#	Modifying user name:	WinNT
#	Modification time:	15. 06. 2019 19:17

#	Program:	/corina/corina34_cracker 3.40 0067  02.08.2006

@<TRIPOS>MOLECULE
ASD01410348
  60   64    0    0    0
SMALL
NO_CHARGES


@<TRIPOS>ATOM
   1 N1            -0.0166     1.3722     0.0096 N.pl3   
   2 C2             0.0021    -0.0041     0.0020 C.2     
   3 C3            -1.2769    -0.4702     0.0117 C.2     
   4 C4            -2.1444     0.6463     0.0260 C.ar    
   5 C5            -1.3301     1.7980     0.0304 C.ar    
   6 C6            -3.5417     0.7764     0.0396 C.ar    
   7 C7            -4.1104     2.0124     0.0513 C.ar    
   8 C8            -3.3081     3.1639     0.0493 C.ar    
   9 C9            -1.9176     3.0521     0.0441 C.ar    
  10 C10           -2.5162    -2.2155     1.2635 C.3     
  11 C11           -2.9397    -3.6858     1.2596 C.3     
  12 C12           -3.7858    -3.9696     0.0169 C.3     
  13 C13           -2.9635    -3.6724    -1.2387 C.3     
  14 C14           -2.5401    -2.2021    -1.2348 C.3     
  15 C15           -1.6940    -1.9183     0.0079 C.3     
  16 C16            1.1624     2.2418     0.0030 C.3     
  17 C17            1.5531     2.5476    -1.4200 C.2     
  18 O18            0.9100     2.0848    -2.3382 O.2     
  19 C19            3.0178     3.6481    -3.0532 C.3     
  20 N20            2.6171     3.3355    -1.6722 N.am    
  21 C21            3.4122     3.9088    -0.5747 C.3     
  22 C22            3.1826     5.1672    -3.1767 C.3     
  23 C23            3.5578     5.4152    -0.8190 C.3     
  24 O24            4.0534     5.6317    -2.1424 O.3     
  25 C25            3.2174    -1.6737    -0.4912 C.2     
  26 C26            2.6436    -2.4348     0.4628 C.2     
  27 O27            1.4333    -1.9282     0.7483 O.3     
  28 C28            1.2126    -0.8391    -0.0145 C.2     
  29 C29            2.3070    -0.6471    -0.8042 C.2     
  30 C30           -3.9370     4.4962     0.0611 C.2     
  31 O31           -3.2446     5.4950     0.0594 O.2     
  32 O32           -5.2802     4.6073     0.0737 O.3     
  33 H33           -4.1658    -0.1049     0.0405 H       
  34 H34           -5.1861     2.1079     0.0618 H       
  35 H35           -1.3020     3.9395     0.0430 H       
  36 H36           -3.4032    -1.5820     1.2754 H       
  37 H37           -1.9135    -2.0134     2.1489 H       
  38 H38           -2.0527    -4.3193     1.2478 H       
  39 H39           -3.5255    -3.8975     2.1541 H       
  40 H40           -4.0874    -5.0170     0.0141 H       
  41 H41           -4.6727    -3.3361     0.0288 H       
  42 H42           -2.0766    -4.3059    -1.2506 H       
  43 H43           -3.5663    -3.8745    -2.1241 H       
  44 H44           -1.9543    -1.9904    -2.1293 H       
  45 H45           -3.4270    -1.5686    -1.2230 H       
  46 H46           -0.8071    -2.5518    -0.0039 H       
  47 H47            0.9315     3.1710     0.5241 H       
  48 H48            1.9879     1.7385     0.5063 H       
  49 H49            3.9635     3.1565    -3.2813 H       
  50 H50            2.2487     3.3048    -3.7452 H       
  51 H51            2.9044     3.7383     0.3745 H       
  52 H52            4.3976     3.4435    -0.5533 H       
  53 H53            3.6111     5.4090    -4.1493 H       
  54 H54            2.2096     5.6483    -3.0769 H       
  55 H55            2.5862     5.8972    -0.7106 H       
  56 H56            4.2563     5.8355    -0.0954 H       
  57 H57            4.1936    -1.8214    -0.9291 H       
  58 H58            3.0843    -3.3078     0.9209 H       
  59 H59            2.4483     0.1408    -1.5292 H       
  60 H60           -5.6466     5.5022     0.0811 H       
@<TRIPOS>BOND
   1    1    2 1
   2    1   16 1
   3    1    5 1
   4    2    3 2
   5    2   28 1
   6    3    4 1
   7    3   15 1
   8    4    5 ar
   9    4    6 ar
  10    5    9 ar
  11    6    7 ar
  12    6   33 1
  13    7    8 ar
  14    7   34 1
  15    8    9 ar
  16    8   30 1
  17    9   35 1
  18   10   11 1
  19   10   15 1
  20   10   36 1
  21   10   37 1
  22   11   12 1
  23   11   38 1
  24   11   39 1
  25   12   13 1
  26   12   40 1
  27   12   41 1
  28   13   14 1
  29   13   42 1
  30   13   43 1
  31   14   15 1
  32   14   44 1
  33   14   45 1
  34   15   46 1
  35   16   17 1
  36   16   47 1
  37   16   48 1
  38   17   18 2
  39   17   20 am
  40   19   20 1
  41   19   22 1
  42   19   49 1
  43   19   50 1
  44   20   21 1
  45   21   23 1
  46   21   51 1
  47   21   52 1
  48   22   24 1
  49   22   53 1
  50   22   54 1
  51   23   24 1
  52   23   55 1
  53   23   56 1
  54   25   26 2
  55   25   29 1
  56   25   57 1
  57   26   27 1
  58   26   58 1
  59   27   28 1
  60   28   29 2
  61   29   59 1
  62   30   31 2
  63   30   32 1
  64   32   60 1

#	End of record

