#	Name: ASD01912032
#	Creating user name:	WinNT
#	Creation time:	15. 06. 2019 19:58

#	Modifying user name:	WinNT
#	Modification time:	15. 06. 2019 19:58

#	Program:	/corina/corina34_cracker 3.40 0067  02.08.2006

@<TRIPOS>MOLECULE
ASD01912032
  32   35    0    0    0
SMALL
NO_CHARGES


@<TRIPOS>ATOM
   1 C1            -0.0160     1.3284     0.0093 C.ar    
   2 N2             0.0021    -0.0041     0.0020 N.ar    
   3 C3             1.1483    -0.6646    -0.0125 C.ar    
   4 N4             2.3210    -0.0432    -0.0199 N.ar    
   5 C5             2.3973     1.2751    -0.0135 C.ar    
   6 C6             1.2163     2.0252     0.0013 C.ar    
   7 C7             1.2530     3.4568     0.0082 C.1     
   8 N8             1.2821     4.5924     0.0137 N.1     
   9 N9             1.1237    -2.0485    -0.0197 N.pl3   
  10 C10            2.3061    -2.7594    -0.0348 C.2     
  11 O11            2.3984    -4.1009    -0.0429 O.3     
  12 C12            3.7095    -4.4337    -0.0580 C.ar    
  13 C13            4.4242    -3.2265    -0.0588 C.ar    
  14 N14            3.5006    -2.2268    -0.0490 N.2     
  15 C15            4.3927    -5.6390    -0.0718 C.ar    
  16 C16            5.7727    -5.6474    -0.0863 C.ar    
  17 C17            6.4830    -4.4566    -0.0867 C.ar    
  18 C18            5.8196    -3.2493    -0.0732 C.ar    
  19 C19           -1.2923     2.0614     0.0194 C.2     
  20 C20           -2.4342     1.6696    -0.6144 C.2     
  21 C21           -3.4847     2.5425    -0.4336 C.2     
  22 C22           -3.2101     3.6099     0.3216 C.2     
  23 S23           -1.5904     3.5783     0.8569 S.3     
  24 H24            3.3584     1.7677    -0.0193 H       
  25 H25            0.2752    -2.5185    -0.0141 H       
  26 H26            3.8462    -6.5705    -0.0708 H       
  27 H27            6.3031    -6.5881    -0.0970 H       
  28 H28            7.5628    -4.4756    -0.0978 H       
  29 H29            6.3771    -2.3243    -0.0740 H       
  30 H30           -2.5077     0.7652    -1.2002 H       
  31 H31           -4.4583     2.3763    -0.8704 H       
  32 H32           -3.9187     4.3890     0.5608 H       
@<TRIPOS>BOND
   1    1    2 ar
   2    1    6 ar
   3    1   19 1
   4    2    3 ar
   5    3    4 ar
   6    3    9 1
   7    4    5 ar
   8    5    6 ar
   9    5   24 1
  10    6    7 1
  11    7    8 3
  12    9   10 1
  13    9   25 1
  14   10   11 1
  15   10   14 2
  16   11   12 1
  17   12   13 ar
  18   12   15 ar
  19   13   14 1
  20   13   18 ar
  21   15   16 ar
  22   15   26 1
  23   16   17 ar
  24   16   27 1
  25   17   18 ar
  26   17   28 1
  27   18   29 1
  28   19   20 2
  29   19   23 1
  30   20   21 1
  31   20   30 1
  32   21   22 2
  33   21   31 1
  34   22   23 1
  35   22   32 1

#	End of record

