#	Name: ASD00431036
#	Creating user name:	WinNT
#	Creation time:	15. 06. 2019 18:35

#	Modifying user name:	WinNT
#	Modification time:	15. 06. 2019 18:35

#	Program:	/corina/corina34_cracker 3.40 0067  02.08.2006

@<TRIPOS>MOLECULE
ASD00431036
  68   71    0    0    0
SMALL
NO_CHARGES


@<TRIPOS>ATOM
   1 C1            -0.0448     1.5947     0.0210 C.2     
   2 C2            -0.0020     0.0785    -0.0490 C.3     
   3 C3            -1.4313    -0.3401     0.3664 C.3     
   4 C4            -2.2224     0.9449     0.2919 C.2     
   5 N5            -1.3967     1.9594     0.0182 N.am    
   6 C6            -1.8609     3.3211    -0.2581 C.3     
   7 C7            -1.9933    -1.3739    -0.6114 C.3     
   8 C8            -3.3187    -1.8787    -0.1018 C.2     
   9 O9            -3.7694    -1.4533     0.9407 O.2     
  10 O10           -3.4205     1.0407     0.4548 O.2     
  11 N11           -4.0033    -2.8027    -0.8047 N.am    
  12 C12            0.9322     2.4257     0.0284 C.2     
  13 C13            2.4097     2.2904     0.0915 C.3     
  14 C14            2.8237     1.2325     1.0961 C.3     
  15 C15            2.4020    -0.1522     0.6849 C.3     
  16 C16            0.9871    -0.4910     0.9538 C.3     
  17 C17           -1.9404     4.0962     1.0319 C.ar    
  18 C18           -0.8412     4.8083     1.4767 C.ar    
  19 C19           -0.9085     5.5198     2.6574 C.ar    
  20 C20           -2.0865     5.5199     3.4016 C.ar    
  21 C21           -3.1907     4.8009     2.9488 C.ar    
  22 C22           -3.1142     4.0974     1.7638 C.ar    
  23 C23           -2.1646     6.2827     4.6721 C.ar    
  24 C24           -3.3426     6.2828     5.4163 C.ar    
  25 C25           -3.4098     6.9941     6.5972 C.ar    
  26 C26           -2.3106     7.7062     7.0420 C.ar    
  27 C27           -1.1388     7.7099     6.3070 C.ar    
  28 C28           -1.0585     6.9968     5.1281 C.ar    
  29 C29           -5.2917    -3.2934    -0.3093 C.3     
  30 C30           -5.8325    -4.2881    -1.2500 C.1     
  31 C31           -6.2638    -5.0814    -2.0003 C.1     
  32 C32            0.3159    -0.3899    -1.4456 C.2     
  33 O33            0.3705     0.4069    -2.3523 O.2     
  34 O34            0.5384    -1.6922    -1.6824 O.3     
  35 C35            1.0609    -3.5834    -3.1248 C.3     
  36 C36            0.8391    -2.0714    -3.0514 C.3     
  37 H37           -1.4344    -0.7327     1.3832 H       
  38 H38           -1.1623     3.8129    -0.9350 H       
  39 H39           -2.8475     3.2820    -0.7199 H       
  40 H40           -2.1319    -0.9119    -1.5888 H       
  41 H41           -1.2965    -2.2075    -0.6991 H       
  42 H42           -3.6428    -3.1429    -1.6385 H       
  43 H43            0.6075     3.4545    -0.0231 H       
  44 H44            2.7851     2.0135    -0.8936 H       
  45 H45            2.8436     3.2473     0.3816 H       
  46 H46            3.9083     1.2533     1.2028 H       
  47 H47            2.3724     1.4664     2.0603 H       
  48 H48            2.5761    -0.2600    -0.3857 H       
  49 H49            3.0343    -0.8719     1.2048 H       
  50 H50            0.7191    -0.1092     1.9390 H       
  51 H51            0.8852    -1.5762     0.9649 H       
  52 H52            0.0714     4.8072     0.8993 H       
  53 H53           -0.0496     6.0752     3.0041 H       
  54 H54           -4.1062     4.7976     3.5217 H       
  55 H55           -3.9694     3.5397     1.4118 H       
  56 H56           -4.2017     5.7277     5.0695 H       
  57 H57           -4.3223     6.9949     7.1748 H       
  58 H58           -2.3676     8.2617     7.9665 H       
  59 H59           -0.2837     8.2680     6.6588 H       
  60 H60           -0.1430     7.0001     4.5551 H       
  61 H61           -5.1531    -3.7554     0.6681 H       
  62 H62           -5.9885    -2.4598    -0.2216 H       
  63 H63           -6.6495    -5.7909    -2.6713 H       
  64 H64            1.8948    -3.8601    -2.4797 H       
  65 H65            0.1593    -4.0994    -2.7946 H       
  66 H66            1.2866    -3.8681    -4.1525 H       
  67 H67            0.0052    -1.7947    -3.6965 H       
  68 H68            1.7407    -1.5555    -3.3817 H       
@<TRIPOS>BOND
   1    1    2 1
   2    1   12 2
   3    1    5 1
   4    2   32 1
   5    2    3 1
   6    2   16 1
   7    3    4 1
   8    3    7 1
   9    3   37 1
  10    4    5 am
  11    4   10 2
  12    5    6 1
  13    6   17 1
  14    6   38 1
  15    6   39 1
  16    7    8 1
  17    7   40 1
  18    7   41 1
  19    8    9 2
  20    8   11 am
  21   11   29 1
  22   11   42 1
  23   12   13 1
  24   12   43 1
  25   13   14 1
  26   13   44 1
  27   13   45 1
  28   14   15 1
  29   14   46 1
  30   14   47 1
  31   15   16 1
  32   15   48 1
  33   15   49 1
  34   16   50 1
  35   16   51 1
  36   17   18 ar
  37   17   22 ar
  38   18   19 ar
  39   18   52 1
  40   19   20 ar
  41   19   53 1
  42   20   21 ar
  43   20   23 1
  44   21   22 ar
  45   21   54 1
  46   22   55 1
  47   23   24 ar
  48   23   28 ar
  49   24   25 ar
  50   24   56 1
  51   25   26 ar
  52   25   57 1
  53   26   27 ar
  54   26   58 1
  55   27   28 ar
  56   27   59 1
  57   28   60 1
  58   29   30 1
  59   29   61 1
  60   29   62 1
  61   30   31 3
  62   31   63 1
  63   32   33 2
  64   32   34 1
  65   34   36 1
  66   35   36 1
  67   35   64 1
  68   35   65 1
  69   35   66 1
  70   36   67 1
  71   36   68 1

#	End of record

