#	Name: ASD04220019
#	Creating user name:	WinNT
#	Creation time:	15. 06. 2019 20:48

#	Modifying user name:	WinNT
#	Modification time:	15. 06. 2019 20:48

#	Program:	/corina/corina34_cracker 3.40 0067  02.08.2006

@<TRIPOS>MOLECULE
ASD04220019
  58   60    0    0    0
SMALL
NO_CHARGES


@<TRIPOS>ATOM
   1 C1             0.0414     1.6422    -0.0334 C.3     
   2 N2            -0.0510     0.1839     0.0939 N.am    
   3 C3             0.8119    -0.6264    -0.7817 C.3     
   4 C4             2.2643    -0.3395    -0.4042 C.3     
   5 C5             2.5067     1.1429    -0.2915 C.ar    
   6 C6             3.8219     1.5865    -0.3707 C.ar    
   7 C7             4.1185     2.9322    -0.2659 C.ar    
   8 C8             3.0903     3.8518    -0.0789 C.ar    
   9 C9             1.7832     3.4077    -0.0046 C.ar    
  10 C10            1.4901     2.0545    -0.1139 C.ar    
  11 C11            0.5122    -2.0895    -0.5808 C.2     
  12 O12            1.1718    -2.7404     0.1945 O.2     
  13 O13           -0.4876    -2.6696    -1.2632 O.3     
  14 O14            3.3698     5.1782     0.0305 O.3     
  15 C15            2.2624     6.0611     0.2211 C.3     
  16 O16            5.4083     3.3559    -0.3446 O.3     
  17 C17            6.4095     2.3545    -0.5367 C.3     
  18 C18           -0.8914    -0.3911     0.9769 C.2     
  19 O19           -1.0196    -1.5969     0.9953 O.2     
  20 C20           -1.6719     0.4644     1.9413 C.3     
  21 C21           -2.5302    -0.4160     2.8127 C.ar    
  22 C22           -1.9976    -0.9884     3.9585 C.ar    
  23 C23           -2.7876    -1.7982     4.7606 C.ar    
  24 C24           -4.1051    -2.0344     4.4187 C.ar    
  25 C25           -4.6377    -1.4618     3.2735 C.ar    
  26 C26           -3.8487    -0.6482     2.4735 C.ar    
  27 O27           -5.9345    -1.6942     2.9370 O.3     
  28 C28           -6.6897    -2.5380     3.8087 C.3     
  29 O29           -0.7007    -0.7559     4.2950 O.3     
  30 C30           -0.2186    -1.3774     5.4880 C.3     
  31 C31           -0.7194    -4.0821    -1.0194 C.3     
  32 H32           -0.4772     1.9609    -0.9376 H       
  33 H33           -0.4217     2.1121     0.8343 H       
  34 H34            0.6407    -0.3536    -1.8231 H       
  35 H35            2.4862    -0.8128     0.5523 H       
  36 H36            2.9218    -0.7531    -1.1689 H       
  37 H37            4.6194     0.8727    -0.5153 H       
  38 H38            0.9834     4.1189     0.1400 H       
  39 H39            1.5792     5.9744    -0.6238 H       
  40 H40            1.7397     5.7952     1.1398 H       
  41 H41            2.6237     7.0870     0.2925 H       
  42 H42            6.2182     1.8237    -1.4693 H       
  43 H43            7.3912     2.8262    -0.5820 H       
  44 H44            6.3829     1.6499     0.2945 H       
  45 H45           -0.9809     1.0308     2.5658 H       
  46 H46           -2.3064     1.1536     1.3842 H       
  47 H47           -2.3727    -2.2445     5.6523 H       
  48 H48           -4.7202    -2.6653     5.0432 H       
  49 H49           -4.2646    -0.1989     1.5838 H       
  50 H50           -6.2200    -3.5202     3.8605 H       
  51 H51           -6.7202    -2.0968     4.8049 H       
  52 H52           -7.7050    -2.6405     3.4255 H       
  53 H53           -0.8077    -1.0360     6.3392 H       
  54 H54           -0.3076    -2.4598     5.3953 H       
  55 H55            0.8273    -1.1105     5.6396 H       
  56 H56           -1.5529    -4.4247    -1.6327 H       
  57 H57            0.1768    -4.6470    -1.2761 H       
  58 H58           -0.9561    -4.2351     0.0335 H       
@<TRIPOS>BOND
   1    1    2 1
   2    1   10 1
   3    1   32 1
   4    1   33 1
   5    2    3 1
   6    2   18 am
   7    3    4 1
   8    3   11 1
   9    3   34 1
  10    4    5 1
  11    4   35 1
  12    4   36 1
  13    5    6 ar
  14    5   10 ar
  15    6    7 ar
  16    6   37 1
  17    7    8 ar
  18    7   16 1
  19    8    9 ar
  20    8   14 1
  21    9   10 ar
  22    9   38 1
  23   11   12 2
  24   11   13 1
  25   13   31 1
  26   14   15 1
  27   15   39 1
  28   15   40 1
  29   15   41 1
  30   16   17 1
  31   17   42 1
  32   17   43 1
  33   17   44 1
  34   18   19 2
  35   18   20 1
  36   20   21 1
  37   20   45 1
  38   20   46 1
  39   21   22 ar
  40   21   26 ar
  41   22   23 ar
  42   22   29 1
  43   23   24 ar
  44   23   47 1
  45   24   25 ar
  46   24   48 1
  47   25   26 ar
  48   25   27 1
  49   26   49 1
  50   27   28 1
  51   28   50 1
  52   28   51 1
  53   28   52 1
  54   29   30 1
  55   30   53 1
  56   30   54 1
  57   30   55 1
  58   31   56 1
  59   31   57 1
  60   31   58 1

#	End of record

