#	Name: ASD04910481
#	Creating user name:	WinNT
#	Creation time:	15. 06. 2019 20:56

#	Modifying user name:	WinNT
#	Modification time:	15. 06. 2019 20:56

#	Program:	/corina/corina34_cracker 3.40 0067  02.08.2006

@<TRIPOS>MOLECULE
ASD04910481
  49   52    0    0    0
SMALL
NO_CHARGES


@<TRIPOS>ATOM
   1 C1             0.4723     1.2443     0.3080 C.2     
   2 C2             0.3913    -0.2272     0.2061 C.ar    
   3 C3             1.5546    -0.9849     0.0569 C.ar    
   4 C4             1.4718    -2.3586    -0.0372 C.ar    
   5 C5             0.2395    -2.9858     0.0156 C.ar    
   6 C6            -0.9172    -2.2410     0.1629 C.ar    
   7 C7            -0.8484    -0.8670     0.2645 C.ar    
   8 O8             1.5526     1.7978     0.2620 O.2     
   9 O9            -0.6524     1.9728     0.4464 O.3     
  10 C10            0.1569    -4.4870    -0.0883 C.3     
  11 N11           -0.8520    -4.9866     0.8490 N.pl3   
  12 C12            0.7558    -4.9047     2.6540 C.ar    
  13 C13           -0.5058    -5.2381     2.1806 C.ar    
  14 C14           -1.4230    -5.8262     3.0492 C.ar    
  15 C15           -1.0368    -6.0559     4.3580 C.ar    
  16 C16            0.2429    -5.6954     4.7598 C.ar    
  17 N17            1.0884    -5.1387     3.9083 N.ar    
  18 C18           -0.0713    -6.5672     7.0422 C.2     
  19 N19            0.6302    -6.5807     8.1426 N.2     
  20 C20            1.7991    -5.9572     7.9325 C.2     
  21 C21            1.8286    -5.5386     6.6532 C.2     
  22 N22            0.6426    -5.9233     6.0820 N.pl3   
  23 C23            2.8906    -5.7589     8.9525 C.3     
  24 F24            2.5516    -6.4267    10.1341 F       
  25 F25            4.0928    -6.2729     8.4548 F       
  26 F26            3.0407    -4.3930     9.2153 F       
  27 C27           -0.2338    -4.8787    -1.5148 C.3     
  28 C28           -0.4499    -6.3898    -1.7013 C.3     
  29 C29           -1.6484    -6.0284    -2.5945 C.3     
  30 C30           -1.7328    -4.7073    -1.8120 C.3     
  31 F31           -1.3125    -5.8609    -3.9423 F       
  32 F32           -2.7569    -6.8614    -2.4091 F       
  33 H33            2.5169    -0.4965     0.0148 H       
  34 H34            2.3707    -2.9459    -0.1527 H       
  35 H35           -1.8759    -2.7368     0.2027 H       
  36 H36           -1.7516    -0.2872     0.3843 H       
  37 H37           -0.5491     2.9322     0.5090 H       
  38 H38            1.1262    -4.9219     0.1553 H       
  39 H39           -1.7602    -5.1429     0.5462 H       
  40 H40            1.4744    -4.4526     1.9865 H       
  41 H41           -2.4119    -6.0960     2.7092 H       
  42 H42           -1.7222    -6.5096     5.0586 H       
  43 H43           -1.0528    -6.9994     6.9148 H       
  44 H44            2.6320    -5.0028     6.1696 H       
  45 H45            0.4158    -4.4342    -2.2688 H       
  46 H46            0.3606    -6.8839    -2.2370 H       
  47 H47           -0.7296    -6.9074    -0.7837 H       
  48 H48           -2.3633    -4.7649    -0.9246 H       
  49 H49           -1.9580    -3.8432    -2.4370 H       
@<TRIPOS>BOND
   1    1    2 1
   2    1    8 2
   3    1    9 1
   4    2    3 ar
   5    2    7 ar
   6    3    4 ar
   7    3   33 1
   8    4    5 ar
   9    4   34 1
  10    5    6 ar
  11    5   10 1
  12    6    7 ar
  13    6   35 1
  14    7   36 1
  15    9   37 1
  16   10   11 1
  17   10   27 1
  18   10   38 1
  19   11   13 1
  20   11   39 1
  21   12   13 ar
  22   12   17 ar
  23   12   40 1
  24   13   14 ar
  25   14   15 ar
  26   14   41 1
  27   15   16 ar
  28   15   42 1
  29   16   17 ar
  30   16   22 1
  31   18   19 2
  32   18   22 1
  33   18   43 1
  34   19   20 1
  35   20   21 2
  36   20   23 1
  37   21   22 1
  38   21   44 1
  39   23   24 1
  40   23   25 1
  41   23   26 1
  42   27   28 1
  43   27   30 1
  44   27   45 1
  45   28   29 1
  46   28   46 1
  47   28   47 1
  48   29   30 1
  49   29   31 1
  50   29   32 1
  51   30   48 1
  52   30   49 1

#	End of record

