#	Name: ASD02690067
#	Creating user name:	WinNT
#	Creation time:	15. 06. 2019 20:26

#	Modifying user name:	WinNT
#	Modification time:	15. 06. 2019 20:26

#	Program:	/corina/corina34_cracker 3.40 0067  02.08.2006

@<TRIPOS>MOLECULE
ASD02690067
  61   63    0    0    0
SMALL
NO_CHARGES


@<TRIPOS>ATOM
   1 C1            -0.0321     1.1787    -0.0401 C.2     
   2 O2            -0.0088    -0.0338     0.0236 O.2     
   3 N3             2.4496     1.3744    -0.1360 N.pl3   
   4 C4             1.1775     1.9056    -0.1205 C.2     
   5 C5             1.3029     3.2821    -0.1985 C.2     
   6 C6             2.6688     3.5630    -0.2607 C.2     
   7 C7             3.3392     2.3846    -0.2208 C.2     
   8 C8             2.7805    -0.0510    -0.0656 C.3     
   9 N9            -4.0827     2.0928     0.8777 N.3     
  10 C10           -3.7948     1.7060    -0.5093 C.3     
  11 C11           -2.4485     0.9808    -0.5691 C.3     
  12 C12           -1.3509     1.9080    -0.0398 C.3     
  13 C13           -1.6993     2.3348     1.3888 C.3     
  14 C14           -3.0673     3.0207     1.3918 C.3     
  15 C15           -6.4480     1.7284     0.3532 C.3     
  16 C16           -5.4292     2.6681     0.9951 C.3     
  17 C17           -5.7922     2.8354     2.4755 C.3     
  18 C18           -7.0816     3.6490     2.5660 C.3     
  19 C19           -8.1434     3.0602     1.6741 C.ar    
  20 C20           -9.4619     3.4336     1.9055 C.ar    
  21 C21          -10.4831     2.9352     1.1228 C.ar    
  22 C22          -10.1966     2.0558     0.0968 C.ar    
  23 C23           -8.8835     1.6785    -0.1374 C.ar    
  24 C24           -7.8519     2.1821     0.6566 C.ar    
  25 O25           -5.9904     1.5514     3.0706 O.3     
  26 N26           -8.5910     0.7889    -1.1736 N.pl3   
  27 H27            0.4974     4.0014    -0.2095 H       
  28 H28            3.1132     4.5450    -0.3290 H       
  29 H29            4.4130     2.2731    -0.2514 H       
  30 H30            2.8253    -0.4638    -1.0734 H       
  31 H31            3.7476    -0.1759     0.4215 H       
  32 H32            2.0149    -0.5739     0.5075 H       
  33 H33           -4.5806     1.0434    -0.8722 H       
  34 H34           -3.7548     2.5981    -1.1343 H       
  35 H35           -2.4922     0.0811     0.0447 H       
  36 H36           -2.2278     0.7076    -1.6010 H       
  37 H37           -1.2799     2.7893    -0.6772 H       
  38 H38           -1.7312     1.4564     2.0335 H       
  39 H39           -0.9433     3.0289     1.7558 H       
  40 H40           -3.0307     3.9067     0.7579 H       
  41 H41           -3.3247     3.3131     2.4099 H       
  42 H42           -6.2985     1.7198    -0.7265 H       
  43 H43           -6.3035     0.7210     0.7435 H       
  44 H44           -5.4591     3.6373     0.4974 H       
  45 H45           -4.9895     3.3606     2.9932 H       
  46 H46           -7.4363     3.6469     3.5967 H       
  47 H47           -6.8815     4.6751     2.2575 H       
  48 H48           -9.6898     4.1209     2.7068 H       
  49 H49          -11.5042     3.2318     1.3121 H       
  50 H50          -10.9919     1.6638    -0.5198 H       
  51 H51           -6.2232     1.5844     4.0086 H       
  52 H52           -9.3058     0.4370    -1.7269 H       
  53 H53           -7.6732     0.5229    -1.3400 H       
  54 C54           10.5872    12.7922     9.0363 C.2     
  55 C55           10.6075    11.2981     9.0281 C.2     
  56 O56           11.6289    13.4127     9.0297 O.2     
  57 O57            9.4130    13.4490     9.0455 O.3     
  58 O58            9.5658    10.6776     9.0347 O.2     
  59 O59           11.7817    10.6413     9.0134 O.3     
  60 H60            9.4505    14.4153     9.0506 H       
  61 H61           11.7442     9.6751     9.0086 H       
@<TRIPOS>BOND
   1    1    2 2
   2    1    4 1
   3    1   12 1
   4    3    4 1
   5    3    7 1
   6    3    8 1
   7    4    5 2
   8    5    6 1
   9    5   27 1
  10    6    7 2
  11    6   28 1
  12    7   29 1
  13    8   30 1
  14    8   31 1
  15    8   32 1
  16    9   10 1
  17    9   14 1
  18    9   16 1
  19   10   11 1
  20   10   33 1
  21   10   34 1
  22   11   12 1
  23   11   35 1
  24   11   36 1
  25   12   13 1
  26   12   37 1
  27   13   14 1
  28   13   38 1
  29   13   39 1
  30   14   40 1
  31   14   41 1
  32   15   16 1
  33   15   24 1
  34   15   42 1
  35   15   43 1
  36   16   17 1
  37   16   44 1
  38   17   18 1
  39   17   25 1
  40   17   45 1
  41   18   19 1
  42   18   46 1
  43   18   47 1
  44   19   20 ar
  45   19   24 ar
  46   20   21 ar
  47   20   48 1
  48   21   22 ar
  49   21   49 1
  50   22   23 ar
  51   22   50 1
  52   23   24 ar
  53   23   26 1
  54   25   51 1
  55   26   52 1
  56   26   53 1
  57   54   55 1
  58   54   56 2
  59   54   57 1
  60   55   58 2
  61   55   59 1
  62   57   60 1
  63   59   61 1

#	End of record

