#	Name: ASD01948315
#	Creating user name:	WinNT
#	Creation time:	15. 06. 2019 20:14

#	Modifying user name:	WinNT
#	Modification time:	15. 06. 2019 20:14

#	Program:	/corina/corina34_cracker 3.40 0067  02.08.2006

@<TRIPOS>MOLECULE
ASD01948315
  56   58    0    0    0
SMALL
NO_CHARGES


@<TRIPOS>ATOM
   1 C1             0.4167     1.9269    -0.0555 C.2     
   2 N2             0.5482     0.5864    -0.2726 N.am    
   3 C3             1.7617     0.0085    -0.3386 C.2     
   4 C4             2.7998     2.1416     0.0355 C.2     
   5 C5             1.5070     2.7141     0.0993 C.2     
   6 C6             3.3616     4.1571    -1.8111 C.ar    
   7 C7             4.1784     3.9790    -0.7025 C.ar    
   8 N8             3.9288     2.9321     0.1912 N.pl3   
   9 C9             3.6106     5.1914    -2.6922 C.ar    
  10 C10            4.6726     6.0501    -2.4720 C.ar    
  11 C11            5.4892     5.8767    -1.3690 C.ar    
  12 C12            5.2457     4.8435    -0.4828 C.ar    
  13 N13            1.3561     4.0924     0.3225 N.am    
  14 S14           -0.1584     4.7583     0.3964 S.o2    
  15 C15           -0.8989     4.0344     1.8858 C.3     
  16 O16            1.8531    -1.1945    -0.5336 O.2     
  17 C17           -0.6519    -0.2379    -0.4360 C.3     
  18 F18            6.0428     4.6742     0.5947 F       
  19 I19            5.0450     7.6168    -3.8121 I       
  20 O20            0.0781     6.1472     0.5818 O.2     
  21 O21           -0.8108     4.2755    -0.7700 O.2     
  22 C22            2.9196     0.7799    -0.1853 C.2     
  23 F23            4.1393     0.2026    -0.2511 F       
  24 C24           -0.6274    -0.9072    -1.8116 C.3     
  25 C25           -2.3192     4.4700     2.2517 C.3     
  26 C26           -2.0690     3.0673     1.6943 C.3     
  27 C27            0.0713     3.7515     3.0344 C.3     
  28 C28            0.6716     5.0683     3.5310 C.3     
  29 C29            1.5417     4.8005     4.7607 C.3     
  30 C30           -0.6851    -1.3119     0.6532 C.3     
  31 N31           -0.4754     0.1155    -2.8496 N.2     
  32 N32            0.4116     0.0885    -3.5394 N.1     
  33 N33            1.2986     0.0615    -4.2293 N.pl3   
  34 H34           -0.5690     2.3660    -0.0110 H       
  35 H35            2.5348     3.4848    -1.9868 H       
  36 H36            4.5453     2.7590     0.9198 H       
  37 H37            2.9754     5.3296    -3.5547 H       
  38 H38            6.3179     6.5484    -1.2002 H       
  39 H39            2.1389     4.6544     0.4334 H       
  40 H40           -1.5385     0.3908    -0.3535 H       
  41 H41            0.2097    -1.6034    -1.8621 H       
  42 H42           -1.5603    -1.4486    -1.9689 H       
  43 H43           -2.5625     4.5547     3.3109 H       
  44 H44           -2.8086     5.1916     1.5976 H       
  45 H45           -2.3938     2.8661     0.6735 H       
  46 H46           -2.1476     2.2292     2.3868 H       
  47 H47           -0.4635     3.2654     3.8504 H       
  48 H48            0.8697     3.0979     2.6830 H       
  49 H49            1.2821     5.5093     2.7430 H       
  50 H50           -0.1311     5.7561     3.7968 H       
  51 H51            0.9313     4.3595     5.5487 H       
  52 H52            2.3444     4.1126     4.4950 H       
  53 H53            1.9694     5.7386     5.1145 H       
  54 H54           -0.7025    -0.8351     1.6332 H       
  55 H55           -1.5780    -1.9252     0.5316 H       
  56 H56            0.2015    -1.9406     0.5707 H       
@<TRIPOS>BOND
   1    1    2 1
   2    1    5 2
   3    1   34 1
   4    2    3 am
   5    2   17 1
   6    3   22 1
   7    3   16 2
   8    4    5 1
   9    4    8 1
  10    4   22 2
  11    5   13 1
  12    6    7 ar
  13    6    9 ar
  14    6   35 1
  15    7    8 1
  16    7   12 ar
  17    8   36 1
  18    9   10 ar
  19    9   37 1
  20   10   11 ar
  21   10   19 1
  22   11   12 ar
  23   11   38 1
  24   12   18 1
  25   13   14 am
  26   13   39 1
  27   14   15 1
  28   14   20 2
  29   14   21 2
  30   15   25 1
  31   15   27 1
  32   15   26 1
  33   17   24 1
  34   17   30 1
  35   17   40 1
  36   22   23 1
  37   24   31 1
  38   24   41 1
  39   24   42 1
  40   25   26 1
  41   25   43 1
  42   25   44 1
  43   26   45 1
  44   26   46 1
  45   27   28 1
  46   27   47 1
  47   27   48 1
  48   28   29 1
  49   28   49 1
  50   28   50 1
  51   29   51 1
  52   29   52 1
  53   29   53 1
  54   30   54 1
  55   30   55 1
  56   30   56 1
  57   31   32 2
  58   32   33 2

#	End of record

