#	Name: ASD08178118
#	Creating user name:	WinNT
#	Creation time:	15. 06. 2019 21:18

#	Modifying user name:	WinNT
#	Modification time:	15. 06. 2019 21:18

#	Program:	/corina/corina34_cracker 3.40 0067  02.08.2006

@<TRIPOS>MOLECULE
ASD08178118
  62   65    0    0    0
SMALL
NO_CHARGES


@<TRIPOS>ATOM
   1 C1            -0.0184     1.5028     0.0103 C.2     
   2 C2             0.0021    -0.0041     0.0020 C.3     
   3 C3             0.0221    -0.5218     1.4416 C.3     
   4 C4             0.0429    -2.0516     1.4332 C.3     
   5 C5             0.0630    -2.5693     2.8728 C.3     
   6 C6             0.0834    -4.0761     2.8645 C.2     
   7 N7             1.1396    -4.8258     2.8513 N.2     
   8 N8             0.9467    -6.0734     2.8463 N.2     
   9 C9            -0.2824    -6.4936     2.8547 C.2     
  10 S10           -1.3267    -5.1359     2.8788 S.3     
  11 N11           -0.6838    -7.8252     2.8506 N.am    
  12 C12            0.2391    -8.8073     2.8374 C.2     
  13 C13           -0.1960   -10.2501     2.8329 C.3     
  14 O14            1.4197    -8.5298     2.8290 O.2     
  15 C15            1.0193   -11.1412     2.8177 C.ar    
  16 C16            1.2140   -12.0267     1.7743 C.ar    
  17 C17            2.3287   -12.8441     1.7604 C.ar    
  18 C18            3.2489   -12.7756     2.7897 C.ar    
  19 C19            3.0546   -11.8894     3.8326 C.ar    
  20 C20            1.9422   -11.0689     3.8444 C.ar    
  21 N21            1.0171     2.2809     0.0046 N.2     
  22 N22            0.7904     3.5228     0.0134 N.2     
  23 C23           -0.4495     3.9094     0.0274 C.2     
  24 S24           -1.4568     2.5237     0.0218 S.3     
  25 N25           -0.8870     5.2295     0.0390 N.am    
  26 C26            0.0089     6.2364     0.0358 C.2     
  27 O27            1.1967     5.9912     0.0228 O.2     
  28 C28           -1.0233   -10.5372     4.0875 C.3     
  29 O29           -2.2328    -9.7775     4.0447 O.3     
  30 C30           -0.4651     7.6668     0.0485 C.3     
  31 C31            0.7256     8.5906     0.0419 C.ar    
  32 C32            1.2598     9.0210    -1.1582 C.ar    
  33 C33            2.3520     9.8684    -1.1642 C.ar    
  34 C34            2.9096    10.2857     0.0299 C.ar    
  35 C35            2.3748     9.8561     1.2300 C.ar    
  36 C36            1.2799     9.0122     1.2360 C.ar    
  37 H37           -0.8875    -0.3767    -0.5057 H       
  38 H38            0.8922    -0.3525    -0.5218 H       
  39 H39            0.9118    -0.1491     1.9494 H       
  40 H40           -0.8680    -0.1733     1.9655 H       
  41 H41           -0.8467    -2.4242     0.9255 H       
  42 H42            0.9330    -2.4000     0.9094 H       
  43 H43            0.9526    -2.1967     3.3806 H       
  44 H44           -0.8271    -2.2209     3.3967 H       
  45 H45           -1.6281    -8.0470     2.8573 H       
  46 H46           -0.8003   -10.4446     1.9469 H       
  47 H47            0.4950   -12.0803     0.9702 H       
  48 H48            2.4805   -13.5365     0.9456 H       
  49 H49            4.1194   -13.4147     2.7792 H       
  50 H50            3.7734   -11.8361     4.6370 H       
  51 H51            1.7904   -10.3765     4.6592 H       
  52 H52           -1.8369     5.4256     0.0495 H       
  53 H53           -1.2628   -11.5997     4.1295 H       
  54 H54           -0.4504   -10.2587     4.9721 H       
  55 H55           -2.8080    -9.9102     4.8106 H       
  56 H56           -1.0758     7.8550    -0.8345 H       
  57 H57           -1.0583     7.8451     0.9454 H       
  58 H58            0.8242     8.6950    -2.0911 H       
  59 H59            2.7698    10.2041    -2.1018 H       
  60 H60            3.7633    10.9472     0.0251 H       
  61 H61            2.8106    10.1819     2.1628 H       
  62 H62            0.8621     8.6765     2.1736 H       
@<TRIPOS>BOND
   1    1    2 1
   2    1   21 2
   3    1   24 1
   4    2    3 1
   5    2   37 1
   6    2   38 1
   7    3    4 1
   8    3   39 1
   9    3   40 1
  10    4    5 1
  11    4   41 1
  12    4   42 1
  13    5    6 1
  14    5   43 1
  15    5   44 1
  16    6    7 2
  17    6   10 1
  18    7    8 1
  19    8    9 2
  20    9   10 1
  21    9   11 1
  22   11   12 am
  23   11   45 1
  24   12   13 1
  25   12   14 2
  26   13   15 1
  27   13   28 1
  28   13   46 1
  29   15   16 ar
  30   15   20 ar
  31   16   17 ar
  32   16   47 1
  33   17   18 ar
  34   17   48 1
  35   18   19 ar
  36   18   49 1
  37   19   20 ar
  38   19   50 1
  39   20   51 1
  40   21   22 1
  41   22   23 2
  42   23   24 1
  43   23   25 1
  44   25   26 am
  45   25   52 1
  46   26   27 2
  47   26   30 1
  48   28   29 1
  49   28   53 1
  50   28   54 1
  51   29   55 1
  52   30   31 1
  53   30   56 1
  54   30   57 1
  55   31   32 ar
  56   31   36 ar
  57   32   33 ar
  58   32   58 1
  59   33   34 ar
  60   33   59 1
  61   34   35 ar
  62   34   60 1
  63   35   36 ar
  64   35   61 1
  65   36   62 1

#	End of record

