#	Name: ASD05842009
#	Creating user name:	WinNT
#	Creation time:	15. 06. 2019 21:03

#	Modifying user name:	WinNT
#	Modification time:	15. 06. 2019 21:03

#	Program:	/corina/corina34_cracker 3.40 0067  02.08.2006

@<TRIPOS>MOLECULE
ASD05842009
  46   48    0    0    0
SMALL
NO_CHARGES


@<TRIPOS>ATOM
   1 C1            -0.1298     1.5556     0.1367 C.ar    
   2 C2            -0.0469     0.1905    -0.0643 C.ar    
   3 C3            -1.1979    -0.5744    -0.0980 C.ar    
   4 C4            -2.4318     0.0258     0.0699 C.ar    
   5 C5            -2.5146     1.3908     0.2719 C.ar    
   6 C6            -1.3633     2.1551     0.3099 C.ar    
   7 C7             1.1249     2.3894     0.1734 C.3     
   8 N8             1.4423     2.8564    -1.1828 N.3     
   9 C9             2.6625     3.6744    -1.1858 C.3     
  10 C10            2.9600     4.1412    -2.6122 C.3     
  11 C11            4.2117     4.9804    -2.6153 C.ar    
  12 C12            5.4442     4.3826    -2.8010 C.ar    
  13 C13            6.5923     5.1524    -2.8038 C.ar    
  14 C14            6.5080     6.5201    -2.6213 C.ar    
  15 C15            5.2754     7.1180    -2.4366 C.ar    
  16 C16            4.1269     6.3488    -2.4381 C.ar    
  17 C17           -3.6866    -0.8078     0.0322 C.3     
  18 I18           -4.8584    -0.4270     1.8088 I       
  19 C19           -4.4931    -0.4467    -1.1885 C.ar    
  20 C20           -4.6655    -1.3715    -2.2014 C.ar    
  21 C21           -5.4052    -1.0402    -3.3212 C.ar    
  22 C22           -5.9731     0.2156    -3.4278 C.ar    
  23 C23           -5.8016     1.1400    -2.4144 C.ar    
  24 C24           -5.0654     0.8073    -1.2927 C.ar    
  25 H25            0.9171    -0.2785    -0.1955 H       
  26 H26           -1.1332    -1.6408    -0.2558 H       
  27 H27           -3.4786     1.8598     0.4027 H       
  28 H28           -1.4281     3.2215     0.4677 H       
  29 H29            0.9715     3.2483     0.8267 H       
  30 H30            1.9504     1.7872     0.5528 H       
  31 H31            1.5257     2.0803    -1.8222 H       
  32 H32            2.5197     4.5422    -0.5419 H       
  33 H33            3.4986     3.0811    -0.8159 H       
  34 H34            3.1028     3.2734    -3.2561 H       
  35 H35            2.1238     4.7346    -2.9822 H       
  36 H36            5.5101     3.3141    -2.9435 H       
  37 H37            7.5553     4.6853    -2.9481 H       
  38 H38            7.4051     7.1214    -2.6228 H       
  39 H39            5.2095     8.1865    -2.2937 H       
  40 H40            3.1639     6.8159    -2.2937 H       
  41 H41           -3.4201    -1.8640    -0.0077 H       
  42 H42           -4.2218    -2.3526    -2.1182 H       
  43 H43           -5.5393    -1.7624    -4.1129 H       
  44 H44           -6.5505     0.4747    -4.3030 H       
  45 H45           -6.2449     2.1213    -2.4978 H       
  46 H46           -4.9314     1.5295    -0.5010 H       
@<TRIPOS>BOND
   1    1    2 ar
   2    1    7 1
   3    1    6 ar
   4    2    3 ar
   5    2   25 1
   6    3    4 ar
   7    3   26 1
   8    4    5 ar
   9    4   17 1
  10    5    6 ar
  11    5   27 1
  12    6   28 1
  13    7    8 1
  14    7   29 1
  15    7   30 1
  16    8    9 1
  17    8   31 1
  18    9   10 1
  19    9   32 1
  20    9   33 1
  21   10   11 1
  22   10   34 1
  23   10   35 1
  24   11   12 ar
  25   11   16 ar
  26   12   13 ar
  27   12   36 1
  28   13   14 ar
  29   13   37 1
  30   14   15 ar
  31   14   38 1
  32   15   16 ar
  33   15   39 1
  34   16   40 1
  35   17   18 1
  36   17   19 1
  37   17   41 1
  38   19   20 ar
  39   19   24 ar
  40   20   21 ar
  41   20   42 1
  42   21   22 ar
  43   21   43 1
  44   22   23 ar
  45   22   44 1
  46   23   24 ar
  47   23   45 1
  48   24   46 1

#	End of record

