#	Name: ASD01913945
#	Creating user name:	WinNT
#	Creation time:	15. 06. 2019 20:02

#	Modifying user name:	WinNT
#	Modification time:	15. 06. 2019 20:02

#	Program:	/corina/corina34_cracker 3.40 0067  02.08.2006

@<TRIPOS>MOLECULE
ASD01913945
  38   40    0    0    0
SMALL
NO_CHARGES


@<TRIPOS>ATOM
   1 C1            -0.0203     1.4278    -0.0182 C.ar    
   2 C2            -0.0000    -0.0041    -0.0177 C.1     
   3 C3             0.0166    -1.1779    -0.0173 C.1     
   4 C4             0.0368    -2.6098    -0.0168 C.ar    
   5 C5            -1.1482    -3.3387     0.1637 C.ar    
   6 C6             0.1561    -5.3344    -0.0290 C.ar    
   7 N7             1.2569    -4.6185    -0.2027 N.ar    
   8 C8             1.2358    -3.3019    -0.2019 C.ar    
   9 C9            -1.0775    -4.7173     0.1560 C.ar    
  10 C10           -1.2240     2.1130     0.1676 C.ar    
  11 C11           -0.0594     4.1973    -0.0182 C.ar    
  12 N12            0.2332    -6.7251    -0.0385 N.am    
  13 C13            1.1644     2.1467    -0.1987 C.ar    
  14 C14           -1.2357     3.4921     0.1664 C.ar    
  15 C15            1.1371     3.5256    -0.1975 C.ar    
  16 C16            0.1556    -7.3659    -1.2113 C.2     
  17 C17            0.2705    -8.8610    -1.3199 C.3     
  18 O18            0.0945    -9.4553    -0.0315 O.3     
  19 C19            0.9069    -8.8483     0.9802 C.3     
  20 C20            0.4016    -7.4277     1.2312 C.3     
  21 C21            0.8133    -9.6637     2.2714 C.3     
  22 O22           -0.0138    -6.7174    -2.2220 O.2     
  23 H23           -2.0923    -2.8338     0.3056 H       
  24 H24            2.1541    -2.7521    -0.3460 H       
  25 H25           -1.9697    -5.3105     0.2924 H       
  26 H26           -2.1428     1.5640     0.3114 H       
  27 H27           -0.0747     5.2772    -0.0185 H       
  28 H28            2.0990     1.6238    -0.3384 H       
  29 H29           -2.1658     4.0231     0.3054 H       
  30 H30            2.0518     4.0826    -0.3372 H       
  31 H31           -0.4956    -9.2349    -1.9990 H       
  32 H32            1.2554    -9.1215    -1.7075 H       
  33 H33            1.9428    -8.8101     0.6433 H       
  34 H34            1.1192    -6.8929     1.8534 H       
  35 H35           -0.5591    -7.4706     1.7444 H       
  36 H36            1.1640   -10.6790     2.0862 H       
  37 H37            1.4321    -9.2000     3.0396 H       
  38 H38           -0.2229    -9.6930     2.6083 H       
@<TRIPOS>BOND
   1    1    2 1
   2    1   13 ar
   3    1   10 ar
   4    2    3 3
   5    3    4 1
   6    4    5 ar
   7    4    8 ar
   8    5    9 ar
   9    5   23 1
  10    6    7 ar
  11    6   12 1
  12    6    9 ar
  13    7    8 ar
  14    8   24 1
  15    9   25 1
  16   10   14 ar
  17   10   26 1
  18   11   14 ar
  19   11   15 ar
  20   11   27 1
  21   12   16 am
  22   12   20 1
  23   13   15 ar
  24   13   28 1
  25   14   29 1
  26   15   30 1
  27   16   17 1
  28   16   22 2
  29   17   18 1
  30   17   31 1
  31   17   32 1
  32   18   19 1
  33   19   20 1
  34   19   21 1
  35   19   33 1
  36   20   34 1
  37   20   35 1
  38   21   36 1
  39   21   37 1
  40   21   38 1

#	End of record

