#	Name: ASD03091430
#	Creating user name:	WinNT
#	Creation time:	15. 06. 2019 20:30

#	Modifying user name:	WinNT
#	Modification time:	15. 06. 2019 20:30

#	Program:	/corina/corina34_cracker 3.40 0067  02.08.2006

@<TRIPOS>MOLECULE
ASD03091430
  31   33    0    0    0
SMALL
NO_CHARGES


@<TRIPOS>ATOM
   1 C1             0.0338     1.6953    -0.0420 C.3     
   2 C2            -0.0043     0.1669    -0.1034 C.3     
   3 N3             0.6531    -0.3888     1.0864 N.3     
   4 C4            -0.0456     0.0122     2.3141 C.3     
   5 C5            -0.0093     1.5358     2.4496 C.3     
   6 C6             1.4482     2.0038     2.5210 C.3     
   7 N7             2.1071     1.6925     1.2452 N.am    
   8 C8             1.4920     2.1648    -0.0027 C.3     
   9 C9            -0.6804     2.1694     1.2273 C.3     
  10 C10            3.2546     0.9861     1.2201 C.2     
  11 O11            3.8131     0.6963     2.2606 O.2     
  12 O12            5.0353    -0.0147    -0.2387 O.3     
  13 C13            3.8328     0.5646    -0.0692 C.2     
  14 N14            3.2601     0.6912    -1.2438 N.2     
  15 C15            4.0798     0.1992    -2.1749 C.2     
  16 C16            5.1950    -0.2452    -1.5521 C.2     
  17 H17           -0.4594     2.1086    -0.9217 H       
  18 H18           -1.0406    -0.1695    -0.1361 H       
  19 H19            0.5164    -0.1737    -0.9984 H       
  20 H20            0.7260    -1.3932     1.0233 H       
  21 H21           -1.0815    -0.3237     2.2686 H       
  22 H22            0.4452    -0.4407     3.1756 H       
  23 H23           -0.5337     1.8344     3.3573 H       
  24 H24            1.4786     3.0794     2.6952 H       
  25 H25            1.9592     1.4854     3.3324 H       
  26 H26            2.0319     1.7524    -0.8551 H       
  27 H27            1.5264     3.2537    -0.0377 H       
  28 H28           -0.6151     3.2552     1.2979 H       
  29 H29           -1.7274     1.8685     1.1899 H       
  30 H30            3.8868     0.1623    -3.2369 H       
  31 H31            6.0537    -0.7003    -2.0231 H       
@<TRIPOS>BOND
   1    1    2 1
   2    1    8 1
   3    1    9 1
   4    1   17 1
   5    2    3 1
   6    2   18 1
   7    2   19 1
   8    3    4 1
   9    3   20 1
  10    4    5 1
  11    4   21 1
  12    4   22 1
  13    5    6 1
  14    5    9 1
  15    5   23 1
  16    6    7 1
  17    6   24 1
  18    6   25 1
  19    7    8 1
  20    7   10 am
  21    8   26 1
  22    8   27 1
  23    9   28 1
  24    9   29 1
  25   10   11 2
  26   10   13 1
  27   12   13 1
  28   12   16 1
  29   13   14 2
  30   14   15 1
  31   15   16 2
  32   15   30 1
  33   16   31 1

#	End of record

