#	Name: ASD01881274
#	Creating user name:	WinNT
#	Creation time:	15. 06. 2019 19:42

#	Modifying user name:	WinNT
#	Modification time:	15. 06. 2019 19:42

#	Program:	/corina/corina34_cracker 3.40 0067  02.08.2006

@<TRIPOS>MOLECULE
ASD01881274
  60   63    0    0    0
SMALL
NO_CHARGES


@<TRIPOS>ATOM
   1 C1             0.1672     0.7667     0.1655 C.2     
   2 N2             0.2730    -0.5732     0.1655 N.am    
   3 C3             1.6947    -0.9347     0.1299 C.3     
   4 C4             2.4591     0.3656     0.1079 C.ar    
   5 C5             3.7971     0.6681     0.0728 C.ar    
   6 C6             4.2080     1.9993     0.0594 C.ar    
   7 C7             3.2618     3.0207     0.0815 C.ar    
   8 C8             1.9195     2.7213     0.1166 C.ar    
   9 C9             1.5024     1.3863     0.1303 C.ar    
  10 O10           -0.8825     1.3801     0.1864 O.2     
  11 N11            5.5633     2.3081     0.0243 N.pl3   
  12 C12            5.9956     3.7078     0.0101 C.3     
  13 C13            8.2185     4.0558     1.1139 C.ar    
  14 C14            7.5009     3.7683    -0.0282 C.ar    
  15 C15            8.1879     3.5339    -1.2189 C.ar    
  16 C16            9.5811     3.6011    -1.2021 C.ar    
  17 C17           10.2233     3.8945    -0.0179 C.ar    
  18 N18            9.5369     4.1102     1.0889 N.ar    
  19 N19            7.5014     3.2401    -2.3934 N.3     
  20 C20            7.8119     1.8813    -2.8590 C.3     
  21 C21            6.9791     1.5690    -4.1046 C.3     
  22 N22            7.2733     2.5605    -5.1486 N.3     
  23 C23            6.9628     3.9193    -4.6829 C.3     
  24 C24            7.7956     4.2316    -3.4374 C.3     
  25 C25            6.5487     2.2504    -6.3883 C.3     
  26 C26           -0.8468    -1.5173     0.1958 C.3     
  27 C27           -1.2730    -1.8493    -1.2356 C.3     
  28 C28           -2.4424    -2.8353    -1.2039 C.3     
  29 C29           -2.8686    -3.1673    -2.6354 C.3     
  30 H30            1.9576    -1.5090     1.0183 H       
  31 H31            1.9121    -1.5125    -0.7684 H       
  32 H32            4.5306    -0.1245     0.0561 H       
  33 H33            3.5829     4.0518     0.0713 H       
  34 H34            1.1886     3.5162     0.1341 H       
  35 H35            6.2225     1.5967     0.0092 H       
  36 H36            5.5894     4.2046    -0.8710 H       
  37 H37            5.6346     4.2087     0.9084 H       
  38 H38            7.6946     4.2431     2.0396 H       
  39 H39           10.1488     3.4253    -2.1039 H       
  40 H40           11.3017     3.9483     0.0046 H       
  41 H41            8.8719     1.8142    -3.1041 H       
  42 H42            7.5739     1.1643    -2.0733 H       
  43 H43            7.2290     0.5725    -4.4687 H       
  44 H44            5.9193     1.6094    -3.8530 H       
  45 H45            7.2008     4.6363    -5.4687 H       
  46 H46            5.9028     3.9864    -4.4379 H       
  47 H47            7.5457     5.2281    -3.0733 H       
  48 H48            8.8554     4.1912    -3.6890 H       
  49 H49            5.4762     2.2559    -6.1933 H       
  50 H50            6.7844     2.9997    -7.1440 H       
  51 H51            6.8477     1.2656    -6.7473 H       
  52 H52           -0.5381    -2.4308     0.7041 H       
  53 H53           -1.6850    -1.0698     0.7299 H       
  54 H54           -1.5816    -0.9358    -1.7439 H       
  55 H55           -0.4348    -2.2968    -1.7697 H       
  56 H56           -2.1338    -3.7488    -0.6956 H       
  57 H57           -3.2806    -2.3878    -0.6698 H       
  58 H58           -2.0304    -3.6148    -3.1694 H       
  59 H59           -3.7017    -3.8698    -2.6127 H       
  60 H60           -3.1772    -2.2538    -3.1437 H       
@<TRIPOS>BOND
   1    1    2 am
   2    1    9 1
   3    1   10 2
   4    2    3 1
   5    2   26 1
   6    3    4 1
   7    3   30 1
   8    3   31 1
   9    4    5 ar
  10    4    9 ar
  11    5    6 ar
  12    5   32 1
  13    6    7 ar
  14    6   11 1
  15    7    8 ar
  16    7   33 1
  17    8    9 ar
  18    8   34 1
  19   11   12 1
  20   11   35 1
  21   12   14 1
  22   12   36 1
  23   12   37 1
  24   13   14 ar
  25   13   18 ar
  26   13   38 1
  27   14   15 ar
  28   15   16 ar
  29   15   19 1
  30   16   17 ar
  31   16   39 1
  32   17   18 ar
  33   17   40 1
  34   19   20 1
  35   19   24 1
  36   20   21 1
  37   20   41 1
  38   20   42 1
  39   21   22 1
  40   21   43 1
  41   21   44 1
  42   22   23 1
  43   22   25 1
  44   23   24 1
  45   23   45 1
  46   23   46 1
  47   24   47 1
  48   24   48 1
  49   25   49 1
  50   25   50 1
  51   25   51 1
  52   26   27 1
  53   26   52 1
  54   26   53 1
  55   27   28 1
  56   27   54 1
  57   27   55 1
  58   28   29 1
  59   28   56 1
  60   28   57 1
  61   29   58 1
  62   29   59 1
  63   29   60 1

#	End of record

