#	Name: ASD03090501
#	Creating user name:	WinNT
#	Creation time:	15. 06. 2019 20:28

#	Modifying user name:	WinNT
#	Modification time:	15. 06. 2019 20:28

#	Program:	/corina/corina34_cracker 3.40 0067  02.08.2006

@<TRIPOS>MOLECULE
ASD03090501
  41   44    0    0    0
SMALL
NO_CHARGES


@<TRIPOS>ATOM
   1 C1            -0.0181     1.5035     0.0017 C.2     
   2 C2             0.0032    -0.0034    -0.0070 C.3     
   3 O3             1.0234     2.1247    -0.0123 O.2     
   4 N4            -1.1946     2.1607     0.0195 N.am    
   5 C5            -1.2152     3.5498     0.1323 C.ar    
   6 C6            -2.4237     4.2403     0.0372 C.ar    
   7 C7            -2.3955     5.6187     0.1553 C.ar    
   8 C8            -1.1566     6.2340     0.3627 C.ar    
   9 N9            -0.0584     5.4944     0.4398 N.ar    
  10 N10           -0.0881     4.2155     0.3354 N.ar    
  11 C11           -1.0713     7.7088     0.4955 C.ar    
  12 C12            0.1629     8.3222     0.7022 C.ar    
  13 C13            0.2364     9.6949     0.8246 C.ar    
  14 C14           -0.9120    10.4617     0.7425 C.ar    
  15 C15           -2.1397     9.8582     0.5379 C.ar    
  16 C16           -2.2244     8.4868     0.4083 C.ar    
  17 N17            5.3364    -1.8071     0.1669 N.pl3   
  18 C18            5.5190    -1.8684     1.5216 C.2     
  19 C19            4.3966    -1.4880     2.1522 C.2     
  20 C20            3.4152    -1.1559     1.1166 C.ar    
  21 C21            2.0926    -0.7088     1.1406 C.ar    
  22 C22            1.4308    -0.4854    -0.0336 C.ar    
  23 C23            2.0627    -0.6995    -1.2511 C.ar    
  24 C24            3.3667    -1.1408    -1.2978 C.ar    
  25 C25            4.0598    -1.3747    -0.1143 C.ar    
  26 H26           -0.4904    -0.3789     0.8893 H       
  27 H27           -0.5203    -0.3690    -0.8904 H       
  28 H28           -2.0270     1.6670    -0.0463 H       
  29 H29           -3.3533     3.7148    -0.1241 H       
  30 H30           -3.3023     6.2016     0.0890 H       
  31 H31            1.0601     7.7245     0.7668 H       
  32 H32            1.1923    10.1713     0.9851 H       
  33 H33           -0.8498    11.5356     0.8388 H       
  34 H34           -3.0331    10.4617     0.4749 H       
  35 H35           -3.1828     8.0170     0.2438 H       
  36 H36            6.0078    -2.0309    -0.4966 H       
  37 H37            6.4308    -2.1774     2.0109 H       
  38 H38            4.2459    -1.4365     3.2204 H       
  39 H39            1.5943    -0.5409     2.0839 H       
  40 H40            1.5264    -0.5185    -2.1709 H       
  41 H41            3.8495    -1.3047    -2.2499 H       
@<TRIPOS>BOND
   1    1    2 1
   2    1    3 2
   3    1    4 am
   4    2   22 1
   5    2   26 1
   6    2   27 1
   7    4    5 1
   8    4   28 1
   9    5    6 ar
  10    5   10 ar
  11    6    7 ar
  12    6   29 1
  13    7    8 ar
  14    7   30 1
  15    8    9 ar
  16    8   11 1
  17    9   10 ar
  18   11   12 ar
  19   11   16 ar
  20   12   13 ar
  21   12   31 1
  22   13   14 ar
  23   13   32 1
  24   14   15 ar
  25   14   33 1
  26   15   16 ar
  27   15   34 1
  28   16   35 1
  29   17   18 1
  30   17   25 1
  31   17   36 1
  32   18   19 2
  33   18   37 1
  34   19   20 1
  35   19   38 1
  36   20   21 ar
  37   20   25 ar
  38   21   22 ar
  39   21   39 1
  40   22   23 ar
  41   23   24 ar
  42   23   40 1
  43   24   25 ar
  44   24   41 1

#	End of record

