#	Name: ASD01901289
#	Creating user name:	WinNT
#	Creation time:	15. 06. 2019 19:53

#	Modifying user name:	WinNT
#	Modification time:	15. 06. 2019 19:53

#	Program:	/corina/corina34_cracker 3.40 0067  02.08.2006

@<TRIPOS>MOLECULE
ASD01901289
  47   50    0    0    0
SMALL
NO_CHARGES


@<TRIPOS>ATOM
   1 C1            -0.0166     1.3749     0.0096 C.ar    
   2 C2             0.0021    -0.0041     0.0020 C.ar    
   3 C3             1.2078    -0.6830    -0.0127 C.ar    
   4 C4             2.4027     0.0149    -0.0199 C.ar    
   5 C5             2.3997     1.3940    -0.0124 C.ar    
   6 C6             1.1860     2.0866     0.0019 C.ar    
   7 C7             1.1748     3.5185     0.0093 C.1     
   8 C8             1.1656     4.6925     0.0153 C.1     
   9 C9             1.1543     6.1244     0.0226 C.ar    
  10 C10           -0.0679     8.1952     0.0502 C.ar    
  11 C11           -0.0607     6.8154     0.0432 C.ar    
  12 C12            2.3584     6.8345     0.0149 C.ar    
  13 C13            2.3439     8.2143     0.0220 C.ar    
  14 C14            1.1325     8.8989     0.0367 C.ar    
  15 N15            1.1215    10.3002     0.0433 N.am    
  16 N16            1.0824    12.3063    -1.1967 N.am    
  17 C17            1.0945    10.9647    -1.1226 C.2     
  18 C18            1.1327    10.9580     1.2231 C.2     
  19 C19            1.0528    12.9584    -2.5083 C.3     
  20 O20            1.1526    10.3506     2.2760 O.2     
  21 O21            1.0807    10.3250    -2.1563 O.2     
  22 C22            1.0982    13.0787    -0.0501 C.ar    
  23 F23           -1.2417     8.8637     0.0697 F       
  24 C24            1.1207    12.4347     1.1999 C.ar    
  25 F25            3.5071     8.9013     0.0150 F       
  26 C26            2.2907    12.5495    -3.3092 C.3     
  27 C27           -0.2073    12.5296    -3.2627 C.3     
  28 N28            1.0860    14.4024    -0.1055 N.ar    
  29 N29            1.1301    13.1490     2.3167 N.ar    
  30 C30            1.1183    14.4660     2.2471 C.ar    
  31 C31            1.0956    15.1043     1.0137 C.ar    
  32 H32           -0.9584     1.9035     0.0169 H       
  33 H33           -0.9266    -0.5554     0.0079 H       
  34 H34            1.2163    -1.7630    -0.0182 H       
  35 H35            3.3399    -0.5217    -0.0310 H       
  36 H36            3.3331     1.9374    -0.0174 H       
  37 H37           -0.9928     6.2698     0.0533 H       
  38 H38            3.2990     6.3038     0.0038 H       
  39 H39            1.0467    14.0403    -2.3761 H       
  40 H40            2.2968    11.4675    -3.4414 H       
  41 H41            2.2686    13.0346    -4.2850 H       
  42 H42            3.1884    12.8549    -2.7718 H       
  43 H43           -1.0892    12.8209    -2.6921 H       
  44 H44           -0.2293    13.0148    -4.2385 H       
  45 H45           -0.2012    11.4477    -3.3949 H       
  46 H46            1.1259    15.0516     3.1546 H       
  47 H47            1.0861    16.1833     0.9692 H       
@<TRIPOS>BOND
   1    1    2 ar
   2    1    6 ar
   3    1   32 1
   4    2    3 ar
   5    2   33 1
   6    3    4 ar
   7    3   34 1
   8    4    5 ar
   9    4   35 1
  10    5    6 ar
  11    5   36 1
  12    6    7 1
  13    7    8 3
  14    8    9 1
  15    9   12 ar
  16    9   11 ar
  17   10   11 ar
  18   10   14 ar
  19   10   23 1
  20   11   37 1
  21   12   13 ar
  22   12   38 1
  23   13   14 ar
  24   13   25 1
  25   14   15 1
  26   15   18 am
  27   15   17 am
  28   16   17 am
  29   16   22 1
  30   16   19 1
  31   17   21 2
  32   18   24 1
  33   18   20 2
  34   19   26 1
  35   19   27 1
  36   19   39 1
  37   22   24 ar
  38   22   28 ar
  39   24   29 ar
  40   26   40 1
  41   26   41 1
  42   26   42 1
  43   27   43 1
  44   27   44 1
  45   27   45 1
  46   28   31 ar
  47   29   30 ar
  48   30   31 ar
  49   30   46 1
  50   31   47 1

#	End of record

