#	Name: ASD03331596
#	Creating user name:	WinNT
#	Creation time:	15. 06. 2019 20:39

#	Modifying user name:	WinNT
#	Modification time:	15. 06. 2019 20:39

#	Program:	/corina/corina34_cracker 3.40 0067  02.08.2006

@<TRIPOS>MOLECULE
ASD03331596
  55   58    0    0    0
SMALL
NO_CHARGES


@<TRIPOS>ATOM
   1 C1            -0.2866     1.6724     0.3477 C.3     
   2 C2            -0.3484     0.1485     0.4685 C.3     
   3 C3             0.3144    -0.4924    -0.7521 C.3     
   4 C4             1.8007    -0.1238    -0.7777 C.3     
   5 C5             1.9199     1.3905    -0.7363 C.2     
   6 C6             1.1769     2.1230     0.3413 C.3     
   7 C7             1.2549     3.6343     0.2034 C.3     
   8 C8             2.6607     1.9748    -1.6317 C.2     
   9 C9             2.8477     3.4627    -1.6952 C.3     
  10 C10            2.6431     4.0569    -0.2973 C.3     
  11 C11            1.0494     5.8218     1.4694 C.3     
  12 C12            0.9079     4.2934     1.5352 C.3     
  13 C13            2.4812     6.1209     1.0615 C.3     
  14 C14            2.8210     7.6036     0.8708 C.3     
  15 C15            2.6606     5.5708    -0.3789 C.3     
  16 C16            3.9635     6.2141    -0.8416 C.3     
  17 C17            4.0486     7.5601    -0.0794 C.3     
  18 O18            0.1770    -1.9128    -0.6780 O.3     
  19 C19            1.8012     1.7329     1.6826 C.3     
  20 H20            3.4148     3.6947     0.3821 H       
  21 C21            3.4629     5.4462     2.0216 C.3     
  22 C22            3.1877     8.2400     2.1867 C.2     
  23 H23            0.5137     3.9508    -0.5305 H       
  24 H24            1.8399     5.9146    -1.0085 H       
  25 C25            2.1114     8.8120     3.0729 C.3     
  26 O26            4.3441     8.2916     2.5310 O.2     
  27 H27           -0.7669     1.9834    -0.5800 H       
  28 H28           -0.8028     2.1254     1.1942 H       
  29 H29            0.1748    -0.1653     1.3718 H       
  30 H30           -1.3896    -0.1690     0.5243 H       
  31 H31           -0.1661    -0.1276    -1.6599 H       
  32 H32            2.3008    -0.5552     0.0894 H       
  33 H33            2.2573    -0.5031    -1.6919 H       
  34 H34            3.1649     1.3608    -2.3632 H       
  35 H35            3.8558     3.6884    -2.0428 H       
  36 H36            2.1197     3.8921    -2.3835 H       
  37 H37            0.3598     6.2272     0.7291 H       
  38 H38            0.8433     6.2563     2.4476 H       
  39 H39           -0.1198     4.0429     1.7983 H       
  40 H40            1.5746     3.9078     2.3066 H       
  41 H41            1.9904     8.1326     0.4036 H       
  42 H42            4.8109     5.5792    -0.5827 H       
  43 H43            3.9369     6.3899    -1.9170 H       
  44 H44            4.0068     8.3916    -0.7829 H       
  45 H45            4.9713     7.6048     0.4991 H       
  46 H46            0.5752    -2.3858    -1.4215 H       
  47 H47            1.7419     0.6520     1.8102 H       
  48 H48            2.8456     2.0442     1.7015 H       
  49 H49            1.2608     2.2244     2.4915 H       
  50 H50            3.2902     4.3700     2.0209 H       
  51 H51            4.4841     5.6506     1.7001 H       
  52 H52            3.3137     5.8374     3.0280 H       
  53 H53            1.4103     8.0241     3.3478 H       
  54 H54            2.5644     9.2259     3.9738 H       
  55 H55            1.5811     9.5999     2.5380 H       
@<TRIPOS>BOND
   1    1    2 1
   2    1    6 1
   3    1   27 1
   4    1   28 1
   5    2    3 1
   6    2   29 1
   7    2   30 1
   8    3    4 1
   9    3   18 1
  10    3   31 1
  11    4    5 1
  12    4   32 1
  13    4   33 1
  14    5    8 2
  15    5    6 1
  16    6    7 1
  17    6   19 1
  18    7   10 1
  19    7   23 1
  20    7   12 1
  21    8    9 1
  22    8   34 1
  23    9   10 1
  24    9   35 1
  25    9   36 1
  26   10   15 1
  27   10   20 1
  28   11   12 1
  29   11   13 1
  30   11   37 1
  31   11   38 1
  32   12   39 1
  33   12   40 1
  34   13   15 1
  35   13   21 1
  36   13   14 1
  37   14   17 1
  38   14   22 1
  39   14   41 1
  40   15   16 1
  41   15   24 1
  42   16   17 1
  43   16   42 1
  44   16   43 1
  45   17   44 1
  46   17   45 1
  47   18   46 1
  48   19   47 1
  49   19   48 1
  50   19   49 1
  51   21   50 1
  52   21   51 1
  53   21   52 1
  54   22   25 1
  55   22   26 2
  56   25   53 1
  57   25   54 1
  58   25   55 1

#	End of record

