#	Name: ASD02030455
#	Creating user name:	WinNT
#	Creation time:	15. 06. 2019 20:15

#	Modifying user name:	WinNT
#	Modification time:	15. 06. 2019 20:15

#	Program:	/corina/corina34_cracker 3.40 0067  02.08.2006

@<TRIPOS>MOLECULE
ASD02030455
  62   66    0    0    0
SMALL
NO_CHARGES


@<TRIPOS>ATOM
   1 N1            -0.0002     1.5067     0.0672 N.am    
   2 C2            -0.0124     0.0370     0.0112 C.3     
   3 C3             0.8597    -0.4125    -1.1659 C.3     
   4 N4             2.1923     0.1934    -1.0432 N.3     
   5 C5             2.1211     1.6584    -1.1245 C.3     
   6 C6             1.3007     2.1928     0.0543 C.3     
   7 C7            -1.1508     2.2064     0.1233 C.2     
   8 O8            -2.2169     1.6311     0.0286 O.2     
   9 O9            -1.1188     3.5427     0.2843 O.3     
  10 C10            0.5511    -0.5317     1.3150 C.3     
  11 C11           -1.4458    -0.4577    -0.1928 C.3     
  12 C12            0.9869    -1.9141    -1.1529 C.2     
  13 O13            1.9851    -2.4341    -0.7019 O.2     
  14 C14           -2.2009    -2.8397    -2.6729 C.ar    
  15 N15           -1.1961    -2.1615    -2.1822 N.ar    
  16 C16           -0.1010    -2.7497    -1.6879 C.ar    
  17 C17            0.0313    -4.1302    -1.6693 C.ar    
  18 C18           -1.0176    -4.9111    -2.1844 C.ar    
  19 C19           -0.9634    -6.3128    -2.2025 C.ar    
  20 C20           -2.0114    -7.0180    -2.7142 C.ar    
  21 C21           -3.1347    -6.3672    -3.2191 C.ar    
  22 C22           -3.2205    -5.0067    -3.2171 C.ar    
  23 C23           -2.1623    -4.2473    -2.6989 C.ar    
  24 C24           -3.4073    -2.1121    -3.2080 C.3     
  25 C25           -4.1786    -1.2146    -2.2383 C.3     
  26 C26           -3.3151    -0.5903    -3.3363 C.3     
  27 C27           -2.3962     4.2311     0.3360 C.3     
  28 C28           -2.1634     5.7088     0.5188 C.ar    
  29 C29           -2.0280     6.5290    -0.5857 C.ar    
  30 C30           -1.8144     7.8844    -0.4180 C.ar    
  31 C31           -1.7368     8.4197     0.8541 C.ar    
  32 C32           -1.8731     7.5997     1.9585 C.ar    
  33 C33           -2.0910     6.2449     1.7909 C.ar    
  34 H34            0.4001    -0.0941    -2.1015 H       
  35 H35            2.6458    -0.0999    -0.1909 H       
  36 H36            3.1279     2.0742    -1.0851 H       
  37 H37            1.6439     1.9480    -2.0607 H       
  38 H38            1.1476     3.2656    -0.0626 H       
  39 H39            1.8283     1.9948     0.9873 H       
  40 H40           -0.0610    -0.1964     2.1522 H       
  41 H41            0.5409    -1.6208     1.2707 H       
  42 H42            1.5749    -0.1832     1.4509 H       
  43 H43           -1.8562    -0.0174    -1.1015 H       
  44 H44           -1.4459    -1.5439    -0.2833 H       
  45 H45           -2.0564    -0.1642     0.6611 H       
  46 H46            0.9202    -4.5945    -1.2685 H       
  47 H47           -0.0979    -6.8290    -1.8143 H       
  48 H48           -1.9702    -8.0971    -2.7288 H       
  49 H49           -3.9511    -6.9502    -3.6192 H       
  50 H50           -4.0982    -4.5170    -3.6122 H       
  51 H51           -3.9820    -2.6473    -3.9639 H       
  52 H52           -5.2607    -1.1590    -2.3564 H       
  53 H53           -3.8134    -1.1503    -1.2133 H       
  54 H54           -2.3818    -0.1154    -3.0336 H       
  55 H55           -3.8291    -0.1240    -4.1767 H       
  56 H56           -2.9385     4.0611    -0.5941 H       
  57 H57           -2.9812     3.8492     1.1727 H       
  58 H58           -2.0886     6.1107    -1.5796 H       
  59 H59           -1.7079     8.5250    -1.2809 H       
  60 H60           -1.5692     9.4785     0.9851 H       
  61 H61           -1.8121     8.0178     2.9524 H       
  62 H62           -2.2013     5.6048     2.6537 H       
@<TRIPOS>BOND
   1    1    2 1
   2    1    6 1
   3    1    7 am
   4    2    3 1
   5    2   10 1
   6    2   11 1
   7    3    4 1
   8    3   12 1
   9    3   34 1
  10    4    5 1
  11    4   35 1
  12    5    6 1
  13    5   36 1
  14    5   37 1
  15    6   38 1
  16    6   39 1
  17    7    8 2
  18    7    9 1
  19    9   27 1
  20   10   40 1
  21   10   41 1
  22   10   42 1
  23   11   43 1
  24   11   44 1
  25   11   45 1
  26   12   13 2
  27   12   16 1
  28   14   15 ar
  29   14   23 ar
  30   14   24 1
  31   15   16 ar
  32   16   17 ar
  33   17   18 ar
  34   17   46 1
  35   18   19 ar
  36   18   23 ar
  37   19   20 ar
  38   19   47 1
  39   20   21 ar
  40   20   48 1
  41   21   22 ar
  42   21   49 1
  43   22   23 ar
  44   22   50 1
  45   24   25 1
  46   24   26 1
  47   24   51 1
  48   25   26 1
  49   25   52 1
  50   25   53 1
  51   26   54 1
  52   26   55 1
  53   27   28 1
  54   27   56 1
  55   27   57 1
  56   28   29 ar
  57   28   33 ar
  58   29   30 ar
  59   29   58 1
  60   30   31 ar
  61   30   59 1
  62   31   32 ar
  63   31   60 1
  64   32   33 ar
  65   32   61 1
  66   33   62 1

#	End of record

