#	Name: ASD05872021
#	Creating user name:	WinNT
#	Creation time:	15. 06. 2019 21:04

#	Modifying user name:	WinNT
#	Modification time:	15. 06. 2019 21:04

#	Program:	/corina/corina34_cracker 3.40 0067  02.08.2006

@<TRIPOS>MOLECULE
ASD05872021
  48   50    0    0    0
SMALL
NO_CHARGES


@<TRIPOS>ATOM
   1 C1            -0.0168     1.3909     0.0097 C.ar    
   2 C2             0.0021    -0.0041     0.0020 C.ar    
   3 C3            -1.1845    -0.7121     0.0100 C.ar    
   4 C4            -2.3952    -0.0265     0.0257 C.ar    
   5 C5            -2.4170     1.3754     0.0334 C.ar    
   6 C6            -1.2170     2.0760     0.0306 C.ar    
   7 C7            -3.8128    -0.4423     0.0376 C.2     
   8 C8            -4.5353     0.7114     0.0509 C.2     
   9 O9            -3.7097     1.7642     0.0484 O.3     
  10 C10           -6.0401     0.7908     0.0655 C.3     
  11 C11           -4.3345    -1.8156     0.0354 C.2     
  12 O12           -4.5403    -2.3894     1.0873 O.2     
  13 N13           -6.5161     0.8087     1.4552 N.3     
  14 C14           -7.9509     1.1229     1.5166 C.3     
  15 C15           -8.4169     1.0724     2.9741 C.3     
  16 O16           -7.6305     1.9785     3.7524 O.3     
  17 C17           -6.2279     1.7014     3.7157 C.3     
  18 C18           -5.7397     1.7583     2.2658 C.3     
  19 O19            1.1896    -0.6677    -0.0138 O.3     
  20 S20            1.7442    -0.9771     1.3693 S.o2    
  21 O21            3.1402    -1.3443     1.1889 O.co2   
  22 O22            1.5963     0.2341     2.1612 O.co2   
  23 O23            0.9548    -2.0770     1.9014 O.co2   
  24 O24            1.1546     2.0819     0.0022 O.3     
  25 C25            1.0667     3.5081     0.0107 C.3     
  26 O26           -4.5849    -2.4397    -1.1331 O.3     
  27 C27           -5.3202    -4.3349    -2.4739 C.3     
  28 C28           -5.0991    -3.7956    -1.0593 C.3     
  29 H29           -1.1722    -1.7920     0.0037 H       
  30 H30           -1.2222     3.1560     0.0365 H       
  31 H31           -6.3608     1.7016    -0.4401 H       
  32 H32           -6.4547    -0.0758    -0.4494 H       
  33 H33           -8.1225     2.1212     1.1140 H       
  34 H34           -8.5089     0.3926     0.9306 H       
  35 H35           -9.4667     1.3604     3.0308 H       
  36 H36           -8.2951     0.0605     3.3603 H       
  37 H37           -5.6944     2.4443     4.3087 H       
  38 H38           -6.0424     0.7077     4.1235 H       
  39 H39           -4.6835     1.4917     2.2266 H       
  40 H40           -5.8760     2.7667     1.8751 H       
  41 H41            0.5230     3.8439    -0.8723 H       
  42 H42            0.5400     3.8343     0.9075 H       
  43 H43            2.0700     3.9341     0.0034 H       
  44 H44           -6.0379    -3.7021    -2.9960 H       
  45 H45           -4.3741    -4.3341    -3.0151 H       
  46 H46           -5.7062    -5.3528    -2.4185 H       
  47 H47           -4.3814    -4.4284    -0.5373 H       
  48 H48           -6.0452    -3.7965    -0.5181 H       
@<TRIPOS>BOND
   1    1    2 ar
   2    1   24 1
   3    1    6 ar
   4    2    3 ar
   5    2   19 1
   6    3    4 ar
   7    3   29 1
   8    4    5 ar
   9    4    7 1
  10    5    6 ar
  11    5    9 1
  12    6   30 1
  13    7    8 2
  14    7   11 1
  15    8    9 1
  16    8   10 1
  17   10   13 1
  18   10   31 1
  19   10   32 1
  20   11   12 2
  21   11   26 1
  22   13   14 1
  23   13   18 1
  24   14   15 1
  25   14   33 1
  26   14   34 1
  27   15   16 1
  28   15   35 1
  29   15   36 1
  30   16   17 1
  31   17   18 1
  32   17   37 1
  33   17   38 1
  34   18   39 1
  35   18   40 1
  36   19   20 1
  37   20   21 ar
  38   20   22 ar
  39   20   23 ar
  40   24   25 1
  41   25   41 1
  42   25   42 1
  43   25   43 1
  44   26   28 1
  45   27   28 1
  46   27   44 1
  47   27   45 1
  48   27   46 1
  49   28   47 1
  50   28   48 1

#	End of record

