#	Name: ASD09750002
#	Creating user name:	WinNT
#	Creation time:	15. 06. 2019 21:23

#	Modifying user name:	WinNT
#	Modification time:	15. 06. 2019 21:23

#	Program:	/corina/corina34_cracker 3.40 0067  02.08.2006

@<TRIPOS>MOLECULE
ASD09750002
  52   55    0    0    0
SMALL
NO_CHARGES


@<TRIPOS>ATOM
   1 C1             0.0011     1.2934    -0.0916 C.2     
   2 C2             0.0078    -0.0872    -0.0967 C.2     
   3 N3            -1.1222    -0.8090    -0.0771 N.pl3   
   4 C4            -2.3679    -0.2367    -0.0501 C.ar    
   5 C5            -2.5061     1.1659    -0.0417 C.ar    
   6 C6            -1.2942     1.9981    -0.0573 C.2     
   7 O7            -1.3572     3.2150    -0.0510 O.2     
   8 C8             1.2599     2.0461    -0.1136 C.2     
   9 O9             2.3289     1.4502    -0.1368 O.co2   
  10 O10            1.2414     3.2700    -0.1088 O.co2   
  11 C11           -1.0214    -2.2705    -0.0854 C.3     
  12 C12           -0.9573    -2.7854     1.3539 C.3     
  13 N13           -3.4686    -0.9806    -0.0316 N.ar    
  14 C14           -4.6637    -0.4108    -0.0060 C.ar    
  15 N15           -4.8262     0.9078     0.0025 N.ar    
  16 C16           -3.7858     1.7225    -0.0150 C.ar    
  17 N17           -5.7831    -1.2175     0.0121 N.3     
  18 C18           -7.0116    -0.4125     0.0394 C.3     
  19 C19           -8.2255    -1.3335    -0.1238 C.3     
  20 N20           -8.1512    -2.3897     0.8971 N.am    
  21 C21           -6.8982    -3.1497     1.0221 C.3     
  22 C22           -5.7366    -2.1573     1.1402 C.3     
  23 C23           -9.2035    -2.6544     1.6964 C.2     
  24 S24          -10.6040    -1.6727     1.6211 S.2     
  25 N25           -9.1533    -3.6920     2.5552 N.am    
  26 C26           -9.3724    -4.9939     2.0927 C.ar    
  27 C27           -9.2181    -6.0729     2.9532 C.ar    
  28 C28           -9.4352    -7.3584     2.4937 C.ar    
  29 C29           -9.8055    -7.5706     1.1773 C.ar    
  30 C30           -9.9595    -6.4972     0.3177 C.ar    
  31 C31           -9.7501    -5.2092     0.7739 C.ar    
  32 Cl32          -9.2425    -8.7078     3.5687 Cl      
  33 Cl33         -10.4236    -6.7678    -1.3331 Cl      
  34 H34            0.9560    -0.6038    -0.1177 H       
  35 H35           -1.8944    -2.6920    -0.5836 H       
  36 H36           -0.1190    -2.5694    -0.6188 H       
  37 H37           -0.8824    -3.8728     1.3477 H       
  38 H38           -0.0843    -2.3639     1.8521 H       
  39 H39           -1.8597    -2.4865     1.8873 H       
  40 H40           -3.9225     2.7938    -0.0076 H       
  41 H41           -7.0802     0.1144     0.9911 H       
  42 H42           -6.9912     0.3102    -0.7763 H       
  43 H43           -9.1419    -0.7587     0.0101 H       
  44 H44           -8.2135    -1.7826    -1.1169 H       
  45 H45           -6.9370    -3.7757     1.9136 H       
  46 H46           -6.7586    -3.7734     0.1392 H       
  47 H47           -4.7914    -2.6999     1.1228 H       
  48 H48           -5.8229    -1.6061     2.0766 H       
  49 H49           -8.9652    -3.5359     3.4939 H       
  50 H50           -8.9284    -5.9078     3.9805 H       
  51 H51           -9.9743    -8.5758     0.8202 H       
  52 H52           -9.8708    -4.3718     0.1026 H       
@<TRIPOS>BOND
   1    1    2 2
   2    1    8 1
   3    1    6 1
   4    2    3 1
   5    2   34 1
   6    3    4 1
   7    3   11 1
   8    4    5 ar
   9    4   13 ar
  10    5    6 1
  11    5   16 ar
  12    6    7 2
  13    8    9 ar
  14    8   10 ar
  15   11   12 1
  16   11   35 1
  17   11   36 1
  18   12   37 1
  19   12   38 1
  20   12   39 1
  21   13   14 ar
  22   14   15 ar
  23   14   17 1
  24   15   16 ar
  25   16   40 1
  26   17   18 1
  27   17   22 1
  28   18   19 1
  29   18   41 1
  30   18   42 1
  31   19   20 1
  32   19   43 1
  33   19   44 1
  34   20   21 1
  35   20   23 am
  36   21   22 1
  37   21   45 1
  38   21   46 1
  39   22   47 1
  40   22   48 1
  41   23   24 2
  42   23   25 am
  43   25   26 1
  44   25   49 1
  45   26   27 ar
  46   26   31 ar
  47   27   28 ar
  48   27   50 1
  49   28   29 ar
  50   28   32 1
  51   29   30 ar
  52   29   51 1
  53   30   31 ar
  54   30   33 1
  55   31   52 1

#	End of record

