#	Name: ASD00431486
#	Creating user name:	WinNT
#	Creation time:	15. 06. 2019 18:35

#	Modifying user name:	WinNT
#	Modification time:	15. 06. 2019 18:35

#	Program:	/corina/corina34_cracker 3.40 0067  02.08.2006

@<TRIPOS>MOLECULE
ASD00431486
  39   41    0    0    0
SMALL
NO_CHARGES


@<TRIPOS>ATOM
   1 C1            -0.4792     1.7221    -0.7011 C.2     
   2 C2            -0.7464     0.2937    -1.1003 C.3     
   3 O3             0.6370     2.0602    -0.3686 O.2     
   4 N4            -1.4796     2.6251    -0.7190 N.am    
   5 C5            -1.2199     4.0137    -0.3309 C.3     
   6 C6            -0.6936     4.7910    -1.5392 C.3     
   7 O7            -3.6993     4.5550    -0.4238 O.3     
   8 N8            -4.5195     5.1781     0.2167 N.2     
   9 C9            -3.9493     5.7302     1.2601 C.2     
  10 N10           -2.6394     5.3887     1.2250 N.2     
  11 C11           -2.4980     4.6467     0.1556 C.2     
  12 S12           -3.8331     7.3049     3.6791 S.3     
  13 C13           -5.3243     7.9872     4.1621 C.2     
  14 N14           -6.2611     7.6602     3.3256 N.2     
  15 C15           -5.9178     6.9023     2.3079 C.2     
  16 C16           -4.6107     6.5669     2.2809 C.2     
  17 O17           -5.5027     8.7581     5.2609 O.3     
  18 C18           -6.7741     9.1017     5.6002 C.ar    
  19 C19           -6.9963    10.0340     6.6051 C.ar    
  20 C20           -8.2878    10.3836     6.9496 C.ar    
  21 C21           -9.3633     9.8022     6.2905 C.ar    
  22 C22           -9.1397     8.8701     5.2859 C.ar    
  23 C23           -7.8478     8.5253     4.9387 C.ar    
  24 Cl24          -5.6515    10.7598     7.4287 Cl      
  25 N25          -10.6714    10.1552     6.6390 N.pl3   
  26 H26           -1.0315    -0.2823    -0.2199 H       
  27 H27           -1.5552     0.2656    -1.8304 H       
  28 H28            0.1544    -0.1355    -1.5392 H       
  29 H29           -2.3715     2.3556    -0.9887 H       
  30 H30           -0.4772     4.0353     0.4666 H       
  31 H31            0.2308     4.3331    -1.8911 H       
  32 H32           -1.4363     4.7694    -2.3367 H       
  33 H33           -0.5004     5.8241    -1.2505 H       
  34 H34           -6.6220     6.5756     1.5570 H       
  35 H35           -8.4610    11.1084     7.7313 H       
  36 H36           -9.9756     8.4178     4.7732 H       
  37 H37           -7.6741     7.8036     4.1542 H       
  38 H38          -10.8274    10.8062     7.3410 H       
  39 H39          -11.4224     9.7491     6.1786 H       
@<TRIPOS>BOND
   1    1    2 1
   2    1    3 2
   3    1    4 am
   4    2   26 1
   5    2   27 1
   6    2   28 1
   7    4    5 1
   8    4   29 1
   9    5    6 1
  10    5   11 1
  11    5   30 1
  12    6   31 1
  13    6   32 1
  14    6   33 1
  15    7    8 1
  16    7   11 1
  17    8    9 2
  18    9   10 1
  19    9   16 1
  20   10   11 2
  21   12   13 1
  22   12   16 1
  23   13   14 2
  24   13   17 1
  25   14   15 1
  26   15   16 2
  27   15   34 1
  28   17   18 1
  29   18   19 ar
  30   18   23 ar
  31   19   20 ar
  32   19   24 1
  33   20   21 ar
  34   20   35 1
  35   21   22 ar
  36   21   25 1
  37   22   23 ar
  38   22   36 1
  39   23   37 1
  40   25   38 1
  41   25   39 1

#	End of record

