#	Name: ASD00069312
#	Creating user name:	WinNT
#	Creation time:	15. 06. 2019 18:29

#	Modifying user name:	WinNT
#	Modification time:	15. 06. 2019 18:29

#	Program:	/corina/corina34_cracker 3.40 0067  02.08.2006

@<TRIPOS>MOLECULE
ASD00069312
  35   36    0    0    0
SMALL
NO_CHARGES


@<TRIPOS>ATOM
   1 N1            -0.0178     1.4642     0.0101 N.3     
   2 C2             0.0021    -0.0041     0.0020 C.3     
   3 C3             0.7039    -0.5130     1.2631 C.3     
   4 C4             2.1331     0.0352     1.3025 C.3     
   5 C5             2.0858     1.5651     1.2611 C.3     
   6 C6             1.3439     2.0138     0.0000 C.3     
   7 C7             2.8099    -0.4136     2.5720 C.2     
   8 O8             2.2116    -1.1015     3.3649 O.2     
   9 O9             4.0773    -0.0491     2.8218 O.3     
  10 C10           -0.7667     1.9612    -1.0613 C.ar    
  11 C11           -0.3975     1.6613    -2.3686 C.ar    
  12 C12           -1.1410     2.1542    -3.4247 C.ar    
  13 C13           -2.2499     2.9447    -3.1818 C.ar    
  14 C14           -2.6186     3.2440    -1.8836 C.ar    
  15 C15           -1.8835     2.7500    -0.8227 C.ar    
  16 N16           -2.2832     3.0670     0.5667 N.pl3   
  17 O17           -3.2634     3.7593     0.7755 O.2     
  18 O18           -1.6321     2.6356     1.5013 O.2     
  19 F19            0.6860     0.8900    -2.6057 F       
  20 C20            4.6654    -0.5178     4.0639 C.3     
  21 H21           -1.0204    -0.3810    -0.0218 H       
  22 H22            0.5390    -0.3552    -0.8792 H       
  23 H23            0.1597    -0.1738     2.1445 H       
  24 H24            0.7324    -1.6025     1.2493 H       
  25 H25            2.6892    -0.3354     0.4414 H       
  26 H26            1.5633     1.9370     2.1425 H       
  27 H27            3.1015     1.9603     1.2458 H       
  28 H28            1.8745     1.6533    -0.8812 H       
  29 H29            1.2960     3.1025    -0.0252 H       
  30 H30           -0.8556     1.9223    -4.4401 H       
  31 H31           -2.8288     3.3293    -4.0084 H       
  32 H32           -3.4850     3.8615    -1.6980 H       
  33 H33            4.0820    -0.1447     4.9056 H       
  34 H34            4.6661    -1.6077     4.0770 H       
  35 H35            5.6896    -0.1529     4.1414 H       
@<TRIPOS>BOND
   1    1    2 1
   2    1    6 1
   3    1   10 1
   4    2    3 1
   5    2   21 1
   6    2   22 1
   7    3    4 1
   8    3   23 1
   9    3   24 1
  10    4    5 1
  11    4    7 1
  12    4   25 1
  13    5    6 1
  14    5   26 1
  15    5   27 1
  16    6   28 1
  17    6   29 1
  18    7    8 2
  19    7    9 1
  20    9   20 1
  21   10   11 ar
  22   10   15 ar
  23   11   12 ar
  24   11   19 1
  25   12   13 ar
  26   12   30 1
  27   13   14 ar
  28   13   31 1
  29   14   15 ar
  30   14   32 1
  31   15   16 1
  32   16   17 2
  33   16   18 2
  34   20   33 1
  35   20   34 1
  36   20   35 1

#	End of record

