#	Name: ASD02500831
#	Creating user name:	WinNT
#	Creation time:	15. 06. 2019 20:23

#	Modifying user name:	WinNT
#	Modification time:	15. 06. 2019 20:23

#	Program:	/corina/corina34_cracker 3.40 0067  02.08.2006

@<TRIPOS>MOLECULE
ASD02500831
  32   33    0    0    0
SMALL
NO_CHARGES


@<TRIPOS>ATOM
   1 C1            -0.0513     1.4110     0.2547 C.ar    
   2 C2            -0.0653     0.0325     0.4759 C.ar    
   3 C3            -1.2159    -0.6922     0.2400 C.ar    
   4 C4            -2.3564    -0.0579    -0.2157 C.ar    
   5 C5            -2.3526     1.3135    -0.4393 C.ar    
   6 C6            -1.2049     2.0515    -0.1998 C.ar    
   7 C7             1.1786     2.1898     0.5068 C.2     
   8 O8             2.3220     1.5564     0.8327 O.3     
   9 O9             1.1588     3.4013     0.4202 O.2     
  10 N10           -3.5124     1.9515    -0.9021 N.pl3   
  11 C11           -4.4944     2.4856    -0.1175 C.2     
  12 C12           -5.4401     3.0086    -0.9240 C.2     
  13 C13           -5.0291     2.7908    -2.2545 C.2     
  14 C14           -3.8448     2.1474    -2.2121 C.2     
  15 C15           -4.5174     2.4892     1.3893 C.3     
  16 C16           -3.0329     1.7112    -3.4044 C.3     
  17 C17           -1.1984     3.5390    -0.4412 C.3     
  18 H18            0.8241    -0.4667     0.8312 H       
  19 H19           -1.2251    -1.7584     0.4116 H       
  20 H20           -3.2537    -0.6304    -0.3988 H       
  21 H21            3.1006     2.1084     0.9883 H       
  22 H22           -6.3467     3.5033    -0.6083 H       
  23 H23           -5.5632     3.0880    -3.1449 H       
  24 H24           -4.0287     3.3911     1.7580 H       
  25 H25           -5.5502     2.4677     1.7370 H       
  26 H26           -3.9899     1.6116     1.7629 H       
  27 H27           -2.3470     2.5093    -3.6886 H       
  28 H28           -2.4642     0.8170    -3.1493 H       
  29 H29           -3.7003     1.4918    -4.2378 H       
  30 H30           -1.3829     4.0603     0.4981 H       
  31 H31           -0.2286     3.8385    -0.8385 H       
  32 H32           -1.9791     3.7942    -1.1578 H       
@<TRIPOS>BOND
   1    1    2 ar
   2    1    7 1
   3    1    6 ar
   4    2    3 ar
   5    2   18 1
   6    3    4 ar
   7    3   19 1
   8    4    5 ar
   9    4   20 1
  10    5    6 ar
  11    5   10 1
  12    6   17 1
  13    7    8 1
  14    7    9 2
  15    8   21 1
  16   10   11 1
  17   10   14 1
  18   11   12 2
  19   11   15 1
  20   12   13 1
  21   12   22 1
  22   13   14 2
  23   13   23 1
  24   14   16 1
  25   15   24 1
  26   15   25 1
  27   15   26 1
  28   16   27 1
  29   16   28 1
  30   16   29 1
  31   17   30 1
  32   17   31 1
  33   17   32 1

#	End of record

