#	Name: ASD08150704
#	Creating user name:	WinNT
#	Creation time:	15. 06. 2019 21:16

#	Modifying user name:	WinNT
#	Modification time:	15. 06. 2019 21:16

#	Program:	/corina/corina34_cracker 3.40 0067  02.08.2006

@<TRIPOS>MOLECULE
ASD08150704
  23   24    0    0    0
SMALL
NO_CHARGES


@<TRIPOS>ATOM
   1 C1            -0.0158     1.3156     0.0093 C.2     
   2 N2             0.0021    -0.0041     0.0020 N.2     
   3 C3             1.1437    -0.6815    -0.0126 C.2     
   4 C4             2.3355     0.0115    -0.0203 C.2     
   5 C5             2.3146     1.4071    -0.0125 C.2     
   6 N6             1.1198     2.0671     0.0025 N.am    
   7 S7            -1.3597     2.4708     0.0210 S.3     
   8 C8             0.9262     3.4261     0.0117 C.2     
   9 C9            -0.3084     3.8975     0.0246 C.2     
  10 O10            3.3615     2.0355    -0.0188 O.2     
  11 C11            2.1038     4.3664     0.0054 C.3     
  12 C12            1.1370    -2.1884    -0.0201 C.3     
  13 C13            0.5379    -2.7023     1.2906 C.3     
  14 Br14           0.0561    -2.8314    -1.5312 Br      
  15 H15            3.2756    -0.5200    -0.0318 H       
  16 H16           -0.6125     4.9338     0.0315 H       
  17 H17            2.3778     4.5987    -1.0237 H       
  18 H18            1.8374     5.2858     0.5268 H       
  19 H19            2.9479     3.8949     0.5086 H       
  20 H20            2.1582    -2.5558    -0.1215 H       
  21 H21           -0.4833    -2.3349     1.3920 H       
  22 H22            0.5330    -3.7923     1.2852 H       
  23 H23            1.1371    -2.3458     2.1284 H       
@<TRIPOS>BOND
   1    1    2 2
   2    1    6 1
   3    1    7 1
   4    2    3 1
   5    3    4 2
   6    3   12 1
   7    4    5 1
   8    4   15 1
   9    5    6 am
  10    5   10 2
  11    6    8 1
  12    7    9 1
  13    8    9 2
  14    8   11 1
  15    9   16 1
  16   11   17 1
  17   11   18 1
  18   11   19 1
  19   12   13 1
  20   12   14 1
  21   12   20 1
  22   13   21 1
  23   13   22 1
  24   13   23 1

#	End of record

