#	Name: ASD07931082
#	Creating user name:	WinNT
#	Creation time:	15. 06. 2019 21:13

#	Modifying user name:	WinNT
#	Modification time:	15. 06. 2019 21:13

#	Program:	/corina/corina34_cracker 3.40 0067  02.08.2006

@<TRIPOS>MOLECULE
ASD07931082
  55   60    0    0    0
SMALL
NO_CHARGES


@<TRIPOS>ATOM
   1 N1            -0.0161     1.3386     0.0094 N.pl3   
   2 C2             0.0021    -0.0041     0.0020 C.2     
   3 C3             1.1793    -0.7101    -0.0125 C.2     
   4 C4             2.4649     0.0245    -0.0208 C.2     
   5 C5             2.3994     1.4984    -0.0142 C.ar    
   6 C6             3.5528     2.2766    -0.0218 C.ar    
   7 C7             3.4490     3.6522    -0.0158 C.ar    
   8 C8             2.2021     4.2571    -0.0020 C.ar    
   9 C9             1.0517     3.4965     0.0061 C.ar    
  10 C10            1.1343     2.1082     0.0025 C.ar    
  11 N11            2.8980    -2.1587    -0.0347 N.am    
  12 N12            3.4184    -0.8621    -0.0335 N.2     
  13 C13            1.5480    -2.1223    -0.0223 C.2     
  14 O14            0.7891    -3.0779    -0.0198 O.2     
  15 C15           -1.3130     2.0200     0.0191 C.3     
  16 C16           -2.7920     1.4339     3.3316 C.ar    
  17 C17           -2.5559     2.6234     4.0178 C.ar    
  18 C18           -1.8832     3.6587     3.3638 C.ar    
  19 C19           -1.4788     3.4556     2.0552 C.ar    
  20 C20           -1.7510     2.2460     1.4432 C.ar    
  21 N21           -2.3882     1.2866     2.0865 N.ar    
  22 C22           -4.3239     2.4850     5.7784 C.ar    
  23 C23           -3.0119     2.7881     5.4203 C.ar    
  24 C24           -2.1324     3.2490     6.4033 C.ar    
  25 C25           -2.6064     3.3851     7.6971 C.ar    
  26 C26           -3.9226     3.0634     7.9724 C.ar    
  27 N27           -4.7297     2.6304     7.0231 N.ar    
  28 C28           -5.2890     1.9925     4.7311 C.3     
  29 C29            3.6668    -3.3295    -0.0475 C.ar    
  30 C30            4.6177    -3.5284    -1.0432 C.ar    
  31 C31            5.3744    -4.6857    -1.0519 C.ar    
  32 C32            5.1859    -5.6437    -0.0723 C.ar    
  33 C33            4.2411    -5.4482     0.9179 C.ar    
  34 C34            3.4857    -4.2915     0.9366 C.ar    
  35 F35            4.8013    -2.5927    -2.0003 F       
  36 H36           -0.9340    -0.5427     0.0080 H       
  37 H37            4.5248     1.8059    -0.0319 H       
  38 H38            4.3420     4.2595    -0.0217 H       
  39 H39            2.1307     5.3347     0.0030 H       
  40 H40            0.0858     3.9794     0.0176 H       
  41 H41           -1.2230     2.9797    -0.4899 H       
  42 H42           -2.0510     1.4040    -0.4946 H       
  43 H43           -3.3069     0.6237     3.8265 H       
  44 H44           -1.6841     4.5939     3.8660 H       
  45 H45           -0.9567     4.2337     1.5183 H       
  46 H46           -1.1087     3.4927     6.1601 H       
  47 H47           -1.9549     3.7383     8.4827 H       
  48 H48           -4.2958     3.1683     8.9805 H       
  49 H49           -5.2435     0.9047     4.6779 H       
  50 H50           -6.3004     2.3013     4.9950 H       
  51 H51           -5.0211     2.4151     3.7627 H       
  52 H52            6.1127    -4.8418    -1.8245 H       
  53 H53            5.7781    -6.5468    -0.0811 H       
  54 H54            4.0965    -6.1989     1.6807 H       
  55 H55            2.7516    -4.1379     1.7138 H       
@<TRIPOS>BOND
   1    1    2 1
   2    1   10 1
   3    1   15 1
   4    2    3 2
   5    2   36 1
   6    3    4 1
   7    3   13 1
   8    4    5 1
   9    4   12 2
  10    5    6 ar
  11    5   10 ar
  12    6    7 ar
  13    6   37 1
  14    7    8 ar
  15    7   38 1
  16    8    9 ar
  17    8   39 1
  18    9   10 ar
  19    9   40 1
  20   11   12 1
  21   11   13 am
  22   11   29 1
  23   13   14 2
  24   15   20 1
  25   15   41 1
  26   15   42 1
  27   16   17 ar
  28   16   21 ar
  29   16   43 1
  30   17   18 ar
  31   17   23 1
  32   18   19 ar
  33   18   44 1
  34   19   20 ar
  35   19   45 1
  36   20   21 ar
  37   22   23 ar
  38   22   27 ar
  39   22   28 1
  40   23   24 ar
  41   24   25 ar
  42   24   46 1
  43   25   26 ar
  44   25   47 1
  45   26   27 ar
  46   26   48 1
  47   28   49 1
  48   28   50 1
  49   28   51 1
  50   29   30 ar
  51   29   34 ar
  52   30   31 ar
  53   30   35 1
  54   31   32 ar
  55   31   52 1
  56   32   33 ar
  57   32   53 1
  58   33   34 ar
  59   33   54 1
  60   34   55 1

#	End of record

