#	Name: ASD01810437
#	Creating user name:	WinNT
#	Creation time:	15. 06. 2019 19:24

#	Modifying user name:	WinNT
#	Modification time:	15. 06. 2019 19:24

#	Program:	/corina/corina34_cracker 3.40 0067  02.08.2006

@<TRIPOS>MOLECULE
ASD01810437
  48   51    0    0    0
SMALL
NO_CHARGES


@<TRIPOS>ATOM
   1 C1            -0.1200     1.4729    -0.1838 C.2     
   2 C2             0.9517     2.1473    -0.6869 C.2     
   3 N3            -1.1121     2.1166     0.4980 N.pl3   
   4 C4            -1.0880     3.4421     0.7159 C.2     
   5 C5            -0.0403     4.2097     0.2495 C.2     
   6 C6             1.0416     3.5436    -0.4939 C.2     
   7 O7             1.9906     4.1785    -0.9272 O.2     
   8 C8            -0.0086     5.6613     0.4844 C.2     
   9 C9            -2.2414     1.3357     1.0089 C.3     
  10 C10           -1.9870     0.9667     2.4477 C.ar    
  11 O11           -0.9118     6.1979     1.0956 O.2     
  12 O12            1.0223     6.3965     0.0220 O.3     
  13 C13           -2.3237     1.8517     3.4560 C.ar    
  14 C14           -2.0929     1.5190     4.7754 C.ar    
  15 C15           -1.5195     0.2888     5.0909 C.ar    
  16 C16           -1.1822    -0.5989     4.0712 C.ar    
  17 C17           -1.4227    -0.2581     2.7555 C.ar    
  18 C18           -1.2685    -0.0743     6.5076 C.ar    
  19 C19           -0.6951    -1.3044     6.8231 C.ar    
  20 C20           -0.4639    -1.6370     8.1425 C.ar    
  21 C21           -0.8007    -0.7520     9.1508 C.ar    
  22 C22           -1.3706     0.4703     8.8433 C.ar    
  23 C23           -1.6001     0.8160     7.5269 C.ar    
  24 C24           -0.2136     0.0115    -0.3862 C.ar    
  25 C25           -1.3106    -0.5348    -1.0545 C.ar    
  26 C26           -1.3917    -1.8994    -1.2399 C.ar    
  27 C27           -0.3891    -2.7261    -0.7648 C.ar    
  28 C28            0.7009    -2.1910    -0.1016 C.ar    
  29 C29            0.7974    -0.8275     0.0851 C.ar    
  30 H30            1.7240     1.6200    -1.2271 H       
  31 H31           -1.8949     3.9104     1.2600 H       
  32 H32           -3.1533     1.9290     0.9418 H       
  33 H33           -2.3538     0.4283     0.4155 H       
  34 H34            0.9991     7.3465     0.2010 H       
  35 H35           -2.7677     2.8051     3.2103 H       
  36 H36           -2.3559     2.2109     5.5618 H       
  37 H37           -0.7376    -1.5536     4.3102 H       
  38 H38           -1.1617    -0.9454     1.9644 H       
  39 H39           -0.4324    -1.9965     6.0367 H       
  40 H40           -0.0195    -2.5902     8.3882 H       
  41 H41           -0.6184    -1.0164    10.1819 H       
  42 H42           -1.6319     1.1574     9.6344 H       
  43 H43           -2.0448     1.7707     7.2879 H       
  44 H44           -2.0942     0.1094    -1.4252 H       
  45 H45           -2.2399    -2.3234    -1.7568 H       
  46 H46           -0.4578    -3.7938    -0.9120 H       
  47 H47            1.4801    -2.8418     0.2668 H       
  48 H48            1.6510    -0.4107     0.5990 H       
@<TRIPOS>BOND
   1    1   24 1
   2    1    2 2
   3    1    3 1
   4    2    6 1
   5    2   30 1
   6    3    4 1
   7    3    9 1
   8    4    5 2
   9    4   31 1
  10    5    6 1
  11    5    8 1
  12    6    7 2
  13    8   11 2
  14    8   12 1
  15    9   10 1
  16    9   32 1
  17    9   33 1
  18   10   13 ar
  19   10   17 ar
  20   12   34 1
  21   13   14 ar
  22   13   35 1
  23   14   15 ar
  24   14   36 1
  25   15   16 ar
  26   15   18 1
  27   16   17 ar
  28   16   37 1
  29   17   38 1
  30   18   19 ar
  31   18   23 ar
  32   19   20 ar
  33   19   39 1
  34   20   21 ar
  35   20   40 1
  36   21   22 ar
  37   21   41 1
  38   22   23 ar
  39   22   42 1
  40   23   43 1
  41   24   25 ar
  42   24   29 ar
  43   25   26 ar
  44   25   44 1
  45   26   27 ar
  46   26   45 1
  47   27   28 ar
  48   27   46 1
  49   28   29 ar
  50   28   47 1
  51   29   48 1

#	End of record

