#	Name: ASD04591111
#	Creating user name:	WinNT
#	Creation time:	15. 06. 2019 20:52

#	Modifying user name:	WinNT
#	Modification time:	15. 06. 2019 20:52

#	Program:	/corina/corina34_cracker 3.40 0067  02.08.2006

@<TRIPOS>MOLECULE
ASD04591111
  56   61    0    0    0
SMALL
NO_CHARGES


@<TRIPOS>ATOM
   1 N1            -0.0141     1.3079     0.2160 N.ar    
   2 C2            -0.0012    -0.0174     0.2782 C.ar    
   3 N3             1.1230    -0.7110     0.3528 N.ar    
   4 C4             2.3001    -0.0928     0.3684 C.ar    
   5 C5             2.3204     1.3151     0.3036 C.ar    
   6 C6             1.1125     2.0012     0.2262 C.ar    
   7 N7             3.5954    -0.5425     0.4376 N.pl3   
   8 C8             4.4788     0.5230     0.4210 C.ar    
   9 C9             3.7335     1.7128     0.3379 C.ar    
  10 C10            5.8640     0.6115     0.4690 C.ar    
  11 N11            6.4621     1.7849     0.4372 N.ar    
  12 C12            5.7914     2.9207     0.3593 C.ar    
  13 C13            4.4137     2.9296     0.3071 C.ar    
  14 N14           -1.2076    -0.6990     0.2649 N.pl3   
  15 C15           -2.4005     0.0042     0.1877 C.2     
  16 N16           -3.5800    -0.5280     0.1685 N.2     
  17 C17            3.9875    -1.9517     0.5178 C.3     
  18 C18            3.3855    -2.5954     1.7792 C.3     
  19 C19            2.4714    -3.7404     1.2962 C.3     
  20 C20            3.0290    -4.1078    -0.1013 C.3     
  21 C21            3.4183    -2.7281    -0.6876 C.3     
  22 C22           -4.6192     0.3074     0.0916 C.2     
  23 C23           -4.2966     1.6184     0.0434 C.2     
  24 S24           -2.5414     1.7573     0.1086 S.3     
  25 C25           -6.0127    -0.1652     0.0613 C.2     
  26 O26           -6.9275     0.6334     0.1327 O.2     
  27 N27           -6.2752    -1.4829    -0.0455 N.am    
  28 C28           -7.6505    -1.9906     0.0724 C.3     
  29 C29           -7.9426    -2.8898    -1.1336 C.3     
  30 N30           -6.9047    -3.9247    -1.2315 N.3     
  31 C31           -5.5827    -3.3322    -1.4752 C.3     
  32 C32           -5.1947    -2.4505    -0.2892 C.3     
  33 H33            1.0950     3.0798     0.1750 H       
  34 H34            6.4560    -0.2894     0.5334 H       
  35 H35            6.3305     3.8563     0.3366 H       
  36 H36            3.8715     3.8615     0.2435 H       
  37 H37           -1.2177    -1.6679     0.3096 H       
  38 H38            5.0741    -2.0362     0.5378 H       
  39 H39            4.1798    -2.9930     2.4109 H       
  40 H40            2.8016    -1.8592     2.3316 H       
  41 H41            2.5401    -4.5938     1.9708 H       
  42 H42            1.4398    -3.3975     1.2172 H       
  43 H43            3.9050    -4.7502    -0.0110 H       
  44 H44            2.2608    -4.5838    -0.7108 H       
  45 H45            2.5395    -2.2216    -1.0870 H       
  46 H46            4.1780    -2.8427    -1.4608 H       
  47 H47           -4.9946     2.4400    -0.0206 H       
  48 H48           -7.7503    -2.5674     0.9919 H       
  49 H49           -8.3498    -1.1545     0.0837 H       
  50 H50           -8.9167    -3.3623    -1.0075 H       
  51 H51           -7.9443    -2.2891    -2.0431 H       
  52 H52           -6.8941    -4.5054    -0.4064 H       
  53 H53           -4.8453    -4.1256    -1.5968 H       
  54 H54           -5.6173    -2.7254    -2.3800 H       
  55 H55           -4.2697    -1.9198    -0.5147 H       
  56 H56           -5.0583    -3.0692     0.5978 H       
@<TRIPOS>BOND
   1    1    2 ar
   2    1    6 ar
   3    2    3 ar
   4    2   14 1
   5    3    4 ar
   6    4    5 ar
   7    4    7 1
   8    5    6 ar
   9    5    9 1
  10    6   33 1
  11    7    8 1
  12    7   17 1
  13    8    9 ar
  14    8   10 ar
  15    9   13 ar
  16   10   11 ar
  17   10   34 1
  18   11   12 ar
  19   12   13 ar
  20   12   35 1
  21   13   36 1
  22   14   15 1
  23   14   37 1
  24   15   16 2
  25   15   24 1
  26   16   22 1
  27   17   18 1
  28   17   21 1
  29   17   38 1
  30   18   19 1
  31   18   39 1
  32   18   40 1
  33   19   20 1
  34   19   41 1
  35   19   42 1
  36   20   21 1
  37   20   43 1
  38   20   44 1
  39   21   45 1
  40   21   46 1
  41   22   23 2
  42   22   25 1
  43   23   24 1
  44   23   47 1
  45   25   26 2
  46   25   27 am
  47   27   28 1
  48   27   32 1
  49   28   29 1
  50   28   48 1
  51   28   49 1
  52   29   30 1
  53   29   50 1
  54   29   51 1
  55   30   31 1
  56   30   52 1
  57   31   32 1
  58   31   53 1
  59   31   54 1
  60   32   55 1
  61   32   56 1

#	End of record

