#	Name: ASD03240348
#	Creating user name:	WinNT
#	Creation time:	15. 06. 2019 20:34

#	Modifying user name:	WinNT
#	Modification time:	15. 06. 2019 20:34

#	Program:	/corina/corina34_cracker 3.40 0067  02.08.2006

@<TRIPOS>MOLECULE
ASD03240348
  62   62    0    0    0
SMALL
NO_CHARGES


@<TRIPOS>ATOM
   1 P1            -0.0095     1.9660    -0.4363 P.3     
   2 P2            -2.5122    -5.1619    -1.0365 P.3     
   3 P3             0.2017    -2.8508    -4.3976 P.3     
   4 P4             0.2763    -3.4678     2.6184 P.3     
   5 O5            -2.2391    -3.5811    -0.9004 O.3     
   6 O6            -0.2826     0.3851    -0.5724 O.3     
   7 O7            -0.9396    -2.7498    -3.2665 O.3     
   8 O8            -0.8884    -3.1731     1.5466 O.3     
   9 O9            -3.1059    -1.4918    -1.9615 O.3     
  10 O10           -1.5822    -0.4461     1.7938 O.3     
  11 O11            1.5730     2.2272    -0.2973 O.3     
  12 O12           -0.5653     2.7212    -1.7450 O.3     
  13 O13           -4.0920    -5.4463    -0.9119 O.3     
  14 O14           -1.9856    -5.6761    -2.4684 O.3     
  15 O15            1.4534    -3.6854    -3.8241 O.3     
  16 O16           -0.3924    -3.5977    -5.6943 O.3     
  17 O17           -0.2917    -4.4306     3.7771 O.3     
  18 O18            1.5141    -4.1871     1.8817 O.3     
  19 O19           -0.7025     2.4847     0.7642 O.2     
  20 O20           -1.7950    -5.8809     0.0402 O.2     
  21 O21            0.6464    -1.4900    -4.7727 O.2     
  22 O22            0.7313    -2.1925     3.2157 O.2     
  23 O23            4.0230     2.5181     1.1025 O.3     
  24 O24            4.1663     2.8930    -1.2344 O.3     
  25 O25            5.8292     4.3429    -1.1081 O.2     
  26 O26            6.0483     3.4020     1.0851 O.2     
  27 C27           -0.9261    -3.0183    -0.8648 C.3     
  28 C28           -0.7553    -2.0481    -2.0354 C.3     
  29 C29           -0.7288    -2.2669     0.4533 C.3     
  30 C30           -1.5956    -0.1777    -0.6079 C.3     
  31 C31           -1.7929    -0.9290    -1.9260 C.3     
  32 C32           -1.7665    -1.1479     0.5627 C.3     
  33 C33            2.1300     3.5208    -0.0556 C.3     
  34 C34            3.6544     3.4136     0.0207 C.3     
  35 C35            5.2957     2.5663     1.5266 C.2     
  36 C36            5.3232     3.4070    -1.6807 C.2     
  37 C37            5.7856     1.5781     2.5534 C.3     
  38 C38            5.9908     2.8168    -2.8960 C.3     
  39 H39           -0.1869    -3.8155    -0.9428 H       
  40 H40            0.2463    -1.6188    -2.0083 H       
  41 H41            0.2727    -1.8376     0.4804 H       
  42 H42           -2.3349     0.6195    -0.5299 H       
  43 H43           -1.6712    -0.2378    -2.7600 H       
  44 H44           -2.7680    -1.5772     0.5356 H       
  45 H45           -3.8158    -0.8384    -1.8965 H       
  46 H46           -2.2072     0.2789     1.9306 H       
  47 H47           -0.1545     2.4308    -2.5709 H       
  48 H48           -2.4131    -5.2468    -3.2220 H       
  49 H49           -4.3303    -6.3807    -0.9848 H       
  50 H50            0.2419    -3.6941    -6.4178 H       
  51 H51            1.2348    -4.5889    -3.5578 H       
  52 H52            1.2882    -5.0308     1.4665 H       
  53 H53            0.3576    -4.6506     4.4591 H       
  54 H54            1.8533     4.1931    -0.8678 H       
  55 H55            1.7457     3.9117     0.8865 H       
  56 H56            4.0792     4.4003     0.2050 H       
  57 H57            5.3919     1.9877    -3.2730 H       
  58 H58            6.0805     3.5808    -3.6683 H       
  59 H59            6.9829     2.4550    -2.6259 H       
  60 H60            4.9717     0.9081     2.8303 H       
  61 H61            6.6079     0.9974     2.1354 H       
  62 H62            6.1318     2.1139     3.4373 H       
@<TRIPOS>BOND
   1    1    6 1
   2    1   11 1
   3    1   12 1
   4    1   19 2
   5    2    5 1
   6    2   13 1
   7    2   14 1
   8    2   20 2
   9    3    7 1
  10    3   15 1
  11    3   16 1
  12    3   21 2
  13    4    8 1
  14    4   17 1
  15    4   18 1
  16    4   22 2
  17    5   27 1
  18    6   30 1
  19    7   28 1
  20    8   29 1
  21    9   45 1
  22    9   31 1
  23   10   46 1
  24   10   32 1
  25   11   33 1
  26   12   47 1
  27   13   49 1
  28   14   48 1
  29   15   51 1
  30   16   50 1
  31   17   53 1
  32   18   52 1
  33   23   34 1
  34   23   35 1
  35   24   34 1
  36   24   36 1
  37   25   36 2
  38   26   35 2
  39   27   39 1
  40   27   28 1
  41   27   29 1
  42   28   40 1
  43   28   31 1
  44   29   41 1
  45   29   32 1
  46   30   42 1
  47   30   31 1
  48   30   32 1
  49   31   43 1
  50   32   44 1
  51   33   34 1
  52   33   54 1
  53   33   55 1
  54   34   56 1
  55   35   37 1
  56   36   38 1
  57   37   60 1
  58   37   61 1
  59   37   62 1
  60   38   57 1
  61   38   58 1
  62   38   59 1

#	End of record

