#	Name: ASD01141058
#	Creating user name:	WinNT
#	Creation time:	15. 06. 2019 19:01

#	Modifying user name:	WinNT
#	Modification time:	15. 06. 2019 19:01

#	Program:	/corina/corina34_cracker 3.40 0067  02.08.2006

@<TRIPOS>MOLECULE
ASD01141058
  39   40    0    0    0
SMALL
NO_CHARGES


@<TRIPOS>ATOM
   1 C1             0.1616     1.5487    -0.9285 C.ar    
   2 C2             0.0064     0.6135    -1.9334 C.ar    
   3 C3             1.2151     2.4645    -0.9885 C.ar    
   4 Cl4           -0.9535     1.5906     0.4013 Cl      
   5 C5             0.8911     0.5828    -2.9957 C.ar    
   6 C6             2.1037     2.4269    -2.0650 C.ar    
   7 C7             1.3879     3.4687     0.0824 C.2     
   8 C8             1.9368     1.4875    -3.0606 C.ar    
   9 C9             2.5638     4.3460     0.0825 C.2     
  10 O10            0.5548     3.5678     0.9640 O.2     
  11 C11            2.4107     5.7074    -0.1057 C.2     
  12 C12            3.9019     3.7790     0.2821 C.2     
  13 N13            3.4765     6.5275     0.0034 N.pl3   
  14 O14            4.0641     2.4422     0.3527 O.3     
  15 O15            4.8649     4.5145     0.3838 O.2     
  16 C16            3.3027     7.9128    -0.0681 C.ar    
  17 C17            4.3991     8.7584     0.0440 C.ar    
  18 C18            2.0340     8.4461    -0.2570 C.ar    
  19 C19            4.2245    10.1264    -0.0269 C.ar    
  20 C20            1.8652     9.8149    -0.3272 C.ar    
  21 C21            2.9586    10.6551    -0.2095 C.ar    
  22 H22            4.3633     6.1559     0.1313 H       
  23 C23            5.4264     1.9470     0.4376 C.3     
  24 C24            5.4175     0.4180     0.3843 C.3     
  25 Cl25           2.7427    12.3754    -0.2976 Cl      
  26 H26           -0.8073    -0.0952    -1.8889 H       
  27 H27            0.7657    -0.1508    -3.7784 H       
  28 H28            2.9199     3.1320    -2.1177 H       
  29 H29            2.6238     1.4576    -3.8934 H       
  30 H30            1.4380     6.1142    -0.3398 H       
  31 H31            5.3871     8.3463     0.1868 H       
  32 H32            1.1804     7.7909    -0.3493 H       
  33 H33            5.0765    10.7842     0.0605 H       
  34 H34            0.8786    10.2302    -0.4700 H       
  35 H35            6.0073     2.3364    -0.3985 H       
  36 H36            5.8745     2.2753     1.3755 H       
  37 H37            6.4296     0.0432     0.5369 H       
  38 H38            4.7649     0.0309     1.1669 H       
  39 H39            5.0516     0.0905    -0.5888 H       
@<TRIPOS>BOND
   1    1    2 ar
   2    1    3 ar
   3    1    4 1
   4    2    5 ar
   5    2   26 1
   6    3    6 ar
   7    3    7 1
   8    5    8 ar
   9    5   27 1
  10    6    8 ar
  11    6   28 1
  12    7    9 1
  13    7   10 2
  14    8   29 1
  15    9   11 2
  16    9   12 1
  17   11   13 1
  18   11   30 1
  19   12   14 1
  20   12   15 2
  21   13   16 1
  22   13   22 1
  23   14   23 1
  24   16   17 ar
  25   16   18 ar
  26   17   19 ar
  27   17   31 1
  28   18   20 ar
  29   18   32 1
  30   19   21 ar
  31   19   33 1
  32   20   21 ar
  33   20   34 1
  34   21   25 1
  35   23   24 1
  36   23   35 1
  37   23   36 1
  38   24   37 1
  39   24   38 1
  40   24   39 1

#	End of record

