#	Name: ASD01913608
#	Creating user name:	WinNT
#	Creation time:	15. 06. 2019 20:01

#	Modifying user name:	WinNT
#	Modification time:	15. 06. 2019 20:01

#	Program:	/corina/corina34_cracker 3.40 0067  02.08.2006

@<TRIPOS>MOLECULE
ASD01913608
  36   38    0    0    0
SMALL
NO_CHARGES


@<TRIPOS>ATOM
   1 C1            -2.8068     0.2915    -1.2460 C.ar    
   2 C2            -2.3002    -0.1537    -0.0293 C.ar    
   3 C3            -3.0932    -0.0152     1.1053 C.ar    
   4 N4            -4.2922     0.5311     0.9877 N.ar    
   5 C5            -4.7369     0.9409    -0.1832 C.ar    
   6 N6            -4.0159     0.8270    -1.2806 N.ar    
   7 C7            -0.9760    -2.0621     0.1331 C.ar    
   8 C8             0.2621    -2.6940     0.2073 C.ar    
   9 C9             0.3135    -4.0736     0.2979 C.ar    
  10 N10           -0.7884    -4.7927     0.3147 N.ar    
  11 C11           -1.9908    -4.2322     0.2460 C.ar    
  12 C12           -2.1239    -2.8508     0.1531 C.ar    
  13 C13           -3.2010    -5.0862     0.2682 C.2     
  14 N14           -3.0791    -6.4254     0.3576 N.am    
  15 O15           -1.0627    -0.7101     0.0488 O.3     
  16 O16           -4.3036    -4.5792     0.2057 O.2     
  17 C17           -4.2155    -7.2213     0.4845 C.ar    
  18 C18           -4.0786    -8.5889     0.6934 C.ar    
  19 C19           -5.2157    -9.3679     0.8176 C.ar    
  20 C20           -6.4551    -8.7495     0.7283 C.ar    
  21 C21           -6.5168    -7.3856     0.5196 C.ar    
  22 N22           -5.4157    -6.6676     0.4104 N.ar    
  23 C23           -7.8594    -6.7082     0.4212 C.3     
  24 F24           -8.2697    -6.2988     1.6945 F       
  25 F25           -7.7586    -5.5928    -0.4173 F       
  26 F26           -8.7963    -7.6040    -0.1051 F       
  27 H27           -2.2197     0.2054    -2.1484 H       
  28 H28           -2.7352    -0.3491     2.0680 H       
  29 H29           -5.7204     1.3827    -0.2454 H       
  30 H30            1.1728    -2.1136     0.1940 H       
  31 H31            1.2721    -4.5677     0.3553 H       
  32 H32           -3.1022    -2.3967     0.0974 H       
  33 H33           -2.2002    -6.8351     0.3336 H       
  34 H34           -3.0983    -9.0374     0.7574 H       
  35 H35           -5.1404   -10.4330     0.9801 H       
  36 H36           -7.3619    -9.3289     0.8206 H       
@<TRIPOS>BOND
   1    1    2 ar
   2    1    6 ar
   3    1   27 1
   4    2    3 ar
   5    2   15 1
   6    3    4 ar
   7    3   28 1
   8    4    5 ar
   9    5    6 ar
  10    5   29 1
  11    7    8 ar
  12    7   12 ar
  13    7   15 1
  14    8    9 ar
  15    8   30 1
  16    9   10 ar
  17    9   31 1
  18   10   11 ar
  19   11   12 ar
  20   11   13 1
  21   12   32 1
  22   13   14 am
  23   13   16 2
  24   14   17 1
  25   14   33 1
  26   17   18 ar
  27   17   22 ar
  28   18   19 ar
  29   18   34 1
  30   19   20 ar
  31   19   35 1
  32   20   21 ar
  33   20   36 1
  34   21   22 ar
  35   21   23 1
  36   23   24 1
  37   23   25 1
  38   23   26 1

#	End of record

