#	Name: ASD00070111
#	Creating user name:	WinNT
#	Creation time:	15. 06. 2019 18:30

#	Modifying user name:	WinNT
#	Modification time:	15. 06. 2019 18:30

#	Program:	/corina/corina34_cracker 3.40 0067  02.08.2006

@<TRIPOS>MOLECULE
ASD00070111
  81   85    0    0    0
SMALL
NO_CHARGES


@<TRIPOS>ATOM
   1 C1            -3.5704     0.8713     1.8172 C.2     
   2 C2            -2.7692    -0.2905     1.3847 C.ar    
   3 C3            -1.3941    -0.1546     1.1763 C.ar    
   4 C4            -0.6501    -1.2408     0.7728 C.ar    
   5 C5            -1.2652    -2.4710     0.5724 C.ar    
   6 C6            -2.6328    -2.6102     0.7782 C.ar    
   7 C7            -3.3826    -1.5305     1.1882 C.ar    
   8 O8            -3.0341     1.9483     1.9925 O.2     
   9 N9            -4.8975     0.7395     2.0123 N.am    
  10 C10           -5.6927     1.8926     2.4415 C.3     
  11 C11           -7.1466     1.7001     2.0055 C.3     
  12 C12           -7.9772     2.9044     2.4537 C.3     
  13 C13           -7.9139     3.0288     3.9773 C.3     
  14 C14           -6.4600     3.2213     4.4134 C.3     
  15 C15           -5.6294     2.0171     3.9651 C.3     
  16 C16           -8.7444     4.2330     4.4256 C.3     
  17 C17           -8.7838     4.2849     5.9542 C.3     
  18 N18           -9.5812     5.4411     6.3846 N.3     
  19 C19           -9.8407     5.3930     7.8292 C.3     
  20 C20          -10.7913     6.5282     8.2161 C.3     
  21 C21          -10.1577     7.8696     7.8367 C.3     
  22 C22           -9.8532     7.8750     6.3362 C.3     
  23 C23           -8.9298     6.7008     6.0037 C.3     
  24 O24          -11.0675    11.8574    10.2746 O.3     
  25 C25           -9.6413    11.6770    10.2875 C.3     
  26 C26           -9.4782    10.2027     9.8478 C.3     
  27 C27          -10.7482     9.9712     9.0521 C.ar    
  28 C28          -11.6202    11.0056     9.3678 C.ar    
  29 C29          -11.1145     8.9880     8.1605 C.ar    
  30 C30          -12.3615     9.0273     7.5615 C.ar    
  31 C31          -13.2350    10.0558     7.8618 C.ar    
  32 C32          -12.8712    11.0404     8.7572 C.ar    
  33 O33           -0.5286    -3.5391     0.1744 O.3     
  34 C34           -1.2004    -4.7980     0.0972 C.3     
  35 C35           -2.3050    -4.7227    -0.9587 C.3     
  36 C36           -0.1985    -5.8877    -0.2896 C.3     
  37 C37           -1.8168    -5.1313     1.4572 C.3     
  38 H38           -0.9156     0.8012     1.3311 H       
  39 H39            0.4126    -1.1366     0.6115 H       
  40 H40           -3.1071    -3.5677     0.6211 H       
  41 H41           -4.4444    -1.6406     1.3525 H       
  42 H42           -5.3260    -0.1187     1.8685 H       
  43 H43           -5.2938     2.7990     1.9860 H       
  44 H44           -7.1917     1.6115     0.9200 H       
  45 H45           -7.5456     0.7938     2.4609 H       
  46 H46           -7.5782     3.8107     1.9983 H       
  47 H47           -9.0129     2.7672     2.1431 H       
  48 H48           -8.3128     2.1225     4.4328 H       
  49 H49           -6.0610     4.1276     3.9579 H       
  50 H50           -6.4149     3.3100     5.4988 H       
  51 H51           -6.0284     1.1107     4.4206 H       
  52 H52           -4.5937     2.1542     4.2758 H       
  53 H53           -8.2933     5.1484     4.0425 H       
  54 H54           -9.7592     4.1387     4.0390 H       
  55 H55           -9.2349     3.3695     6.3373 H       
  56 H56           -7.7690     4.3792     6.3408 H       
  57 H57          -10.2950     4.4358     8.0849 H       
  58 H58           -8.9014     5.5053     8.3708 H       
  59 H59          -11.7358     6.4088     7.6853 H       
  60 H60          -10.9713     6.5018     9.2908 H       
  61 H61           -9.2327     8.0068     8.3967 H       
  62 H62          -10.7829     7.7768     5.7758 H       
  63 H63           -9.3629     8.8108     6.0677 H       
  64 H64           -7.9948     6.8070     6.5539 H       
  65 H65           -8.7225     6.6934     4.9336 H       
  66 H66           -9.1608    12.3478     9.5753 H       
  67 H67           -9.2422    11.8271    11.2907 H       
  68 H68           -8.5965    10.0789     9.2190 H       
  69 H69           -9.4342     9.5408    10.7127 H       
  70 H70          -12.6510     8.2574     6.8616 H       
  71 H71          -14.2073    10.0890     7.3927 H       
  72 H72          -13.5597    11.8403     8.9865 H       
  73 H73           -1.8718    -4.8659    -1.9486 H       
  74 H74           -3.0429    -5.5021    -0.7688 H       
  75 H75           -2.7873    -3.7463    -0.9110 H       
  76 H76            0.5885    -5.9414     0.4626 H       
  77 H77           -0.7109    -6.8480    -0.3485 H       
  78 H78            0.2406    -5.6502    -1.2586 H       
  79 H79           -2.3615    -4.2646     1.8316 H       
  80 H80           -2.5019    -5.9722     1.3493 H       
  81 H81           -1.0261    -5.3948     2.1598 H       
@<TRIPOS>BOND
   1    1    2 1
   2    1    8 2
   3    1    9 am
   4    2    3 ar
   5    2    7 ar
   6    3    4 ar
   7    3   38 1
   8    4    5 ar
   9    4   39 1
  10    5    6 ar
  11    5   33 1
  12    6    7 ar
  13    6   40 1
  14    7   41 1
  15    9   10 1
  16    9   42 1
  17   10   11 1
  18   10   15 1
  19   10   43 1
  20   11   12 1
  21   11   44 1
  22   11   45 1
  23   12   13 1
  24   12   46 1
  25   12   47 1
  26   13   14 1
  27   13   16 1
  28   13   48 1
  29   14   15 1
  30   14   49 1
  31   14   50 1
  32   15   51 1
  33   15   52 1
  34   16   17 1
  35   16   53 1
  36   16   54 1
  37   17   18 1
  38   17   55 1
  39   17   56 1
  40   18   19 1
  41   18   23 1
  42   19   20 1
  43   19   57 1
  44   19   58 1
  45   20   21 1
  46   20   59 1
  47   20   60 1
  48   21   22 1
  49   21   29 1
  50   21   61 1
  51   22   23 1
  52   22   62 1
  53   22   63 1
  54   23   64 1
  55   23   65 1
  56   24   25 1
  57   24   28 1
  58   25   26 1
  59   25   66 1
  60   25   67 1
  61   26   27 1
  62   26   68 1
  63   26   69 1
  64   27   28 ar
  65   27   29 ar
  66   28   32 ar
  67   29   30 ar
  68   30   31 ar
  69   30   70 1
  70   31   32 ar
  71   31   71 1
  72   32   72 1
  73   33   34 1
  74   34   35 1
  75   34   37 1
  76   34   36 1
  77   35   73 1
  78   35   74 1
  79   35   75 1
  80   36   76 1
  81   36   77 1
  82   36   78 1
  83   37   79 1
  84   37   80 1
  85   37   81 1

#	End of record

