#	Name: ASD01903225
#	Creating user name:	WinNT
#	Creation time:	15. 06. 2019 19:54

#	Modifying user name:	WinNT
#	Modification time:	15. 06. 2019 19:54

#	Program:	/corina/corina34_cracker 3.40 0067  02.08.2006

@<TRIPOS>MOLECULE
ASD01903225
  28   30    0    0    0
SMALL
NO_CHARGES


@<TRIPOS>ATOM
   1 S1            -0.0211     1.7049     0.0114 S.3     
   2 C2             0.0021    -0.0041     0.0020 C.2     
   3 N3             1.2221    -0.4387    -0.0120 N.2     
   4 C4             2.1845     0.4751    -0.0162 C.2     
   5 C5             1.7399     1.7439    -0.0052 C.2     
   6 N6            -1.1265    -0.8116     0.0089 N.pl3   
   7 C7            -2.3885    -0.2388     0.0239 C.ar    
   8 C8             3.6284     0.1262    -0.0314 C.2     
   9 C9             4.6496     0.8393    -0.6882 C.2     
  10 N10            5.7813     0.2232    -0.4695 N.2     
  11 N11            5.5296    -0.8989     0.3293 N.pl3   
  12 C12            4.2063    -0.9396     0.5930 C.2     
  13 N13           -3.4552    -1.0244     0.0303 N.ar    
  14 C14           -4.6737    -0.5101     0.0451 C.ar    
  15 C15           -4.8260     0.8677     0.0540 C.ar    
  16 C16           -3.6886     1.6600     0.0469 C.ar    
  17 N17           -2.4993     1.0814     0.0371 N.ar    
  18 C18            2.5979     2.9827    -0.0072 C.3     
  19 F19            2.8504     3.3730    -1.3267 F       
  20 F20            1.9310     4.0130     0.6644 F       
  21 F21            3.8089     2.7123     0.6390 F       
  22 H22           -1.0321    -1.7770     0.0031 H       
  23 H23            4.5201     1.7389    -1.2716 H       
  24 H24            6.1919    -1.5348     0.6422 H       
  25 H25            3.6965    -1.6853     1.1850 H       
  26 H26           -5.5395    -1.1557     0.0499 H       
  27 H27           -5.8093     1.3140     0.0657 H       
  28 H28           -3.7726     2.7367     0.0535 H       
@<TRIPOS>BOND
   1    1    2 1
   2    1    5 1
   3    2    3 2
   4    2    6 1
   5    3    4 1
   6    4    5 2
   7    4    8 1
   8    5   18 1
   9    6    7 1
  10    6   22 1
  11    7   13 ar
  12    7   17 ar
  13    8    9 1
  14    8   12 2
  15    9   10 2
  16    9   23 1
  17   10   11 1
  18   11   12 1
  19   11   24 1
  20   12   25 1
  21   13   14 ar
  22   14   15 ar
  23   14   26 1
  24   15   16 ar
  25   15   27 1
  26   16   17 ar
  27   16   28 1
  28   18   19 1
  29   18   20 1
  30   18   21 1

#	End of record

