#	Name: ASD07301340
#	Creating user name:	WinNT
#	Creation time:	15. 06. 2019 21:11

#	Modifying user name:	WinNT
#	Modification time:	15. 06. 2019 21:11

#	Program:	/corina/corina34_cracker 3.40 0067  02.08.2006

@<TRIPOS>MOLECULE
ASD07301340
  42   45    0    0    0
SMALL
NO_CHARGES


@<TRIPOS>ATOM
   1 C1             0.0239     1.8791     0.0188 C.2     
   2 C2            -0.1343     0.4157    -0.0064 C.2     
   3 C3             1.0437    -0.3600    -0.1285 C.2     
   4 C4             2.2281     0.2962    -0.2131 C.2     
   5 N5             2.2759     1.6474    -0.1813 N.pl3   
   6 N6             1.2342     2.3863    -0.0720 N.2     
   7 O7            -1.2356    -0.1073     0.0750 O.2     
   8 N8            -1.2393     3.9082     0.8759 N.pl3   
   9 N9            -2.5279     4.4302     0.7071 N.2     
  10 C10           -3.1994     3.6425    -0.0947 C.2     
  11 C11           -2.3756     2.5833    -0.4754 C.2     
  12 C12           -1.1547     2.7613     0.1376 C.2     
  13 C13           -0.2185     4.4651     1.6567 C.ar    
  14 C14            0.0085     5.8348     1.6313 C.ar    
  15 C15            1.0156     6.3809     2.4027 C.ar    
  16 C16            1.7975     5.5652     3.1998 C.ar    
  17 C17            1.5740     4.2008     3.2273 C.ar    
  18 C18            0.5651     3.6492     2.4622 C.ar    
  19 C19            3.5252     2.2700    -0.2724 C.ar    
  20 C20            3.6061     3.6494    -0.4025 C.ar    
  21 C21            4.8479     4.2632    -0.4926 C.ar    
  22 C22            6.0059     3.4945    -0.4523 C.ar    
  23 C23            5.9213     2.1220    -0.3232 C.ar    
  24 C24            4.6868     1.5086    -0.2271 C.ar    
  25 S25            4.9567     6.0140    -0.6585 S.3     
  26 C26            6.7454     6.3065    -0.7332 C.3     
  27 H27            1.0010    -1.4388    -0.1531 H       
  28 H28            3.1445    -0.2676    -0.3066 H       
  29 H29           -4.2224     3.7885    -0.4088 H       
  30 H30           -2.6461     1.7700    -1.1325 H       
  31 H31           -0.6016     6.4724     1.0087 H       
  32 H32            1.1928     7.4461     2.3831 H       
  33 H33            2.5846     5.9945     3.8019 H       
  34 H34            2.1866     3.5663     3.8506 H       
  35 H35            0.3883     2.5841     2.4873 H       
  36 H36            2.7049     4.2439    -0.4339 H       
  37 H37            6.9725     3.9712    -0.5224 H       
  38 H38            6.8223     1.5272    -0.2925 H       
  39 H39            4.6245     0.4356    -0.1210 H       
  40 H40            7.2116     5.9427     0.1824 H       
  41 H41            7.1645     5.7778    -1.5893 H       
  42 H42            6.9348     7.3748    -0.8377 H       
@<TRIPOS>BOND
   1    1    2 1
   2    1    6 2
   3    1   12 1
   4    2    3 1
   5    2    7 2
   6    3    4 2
   7    3   27 1
   8    4    5 1
   9    4   28 1
  10    5    6 1
  11    5   19 1
  12    8    9 1
  13    8   12 1
  14    8   13 1
  15    9   10 2
  16   10   11 1
  17   10   29 1
  18   11   12 2
  19   11   30 1
  20   13   14 ar
  21   13   18 ar
  22   14   15 ar
  23   14   31 1
  24   15   16 ar
  25   15   32 1
  26   16   17 ar
  27   16   33 1
  28   17   18 ar
  29   17   34 1
  30   18   35 1
  31   19   20 ar
  32   19   24 ar
  33   20   21 ar
  34   20   36 1
  35   21   22 ar
  36   21   25 1
  37   22   23 ar
  38   22   37 1
  39   23   24 ar
  40   23   38 1
  41   24   39 1
  42   25   26 1
  43   26   40 1
  44   26   41 1
  45   26   42 1

#	End of record

