#	Name: ASD03731350
#	Creating user name:	WinNT
#	Creation time:	15. 06. 2019 20:45

#	Modifying user name:	WinNT
#	Modification time:	15. 06. 2019 20:45

#	Program:	/corina/corina34_cracker 3.40 0067  02.08.2006

@<TRIPOS>MOLECULE
ASD03731350
  58   64    0    0    0
SMALL
NO_CHARGES


@<TRIPOS>ATOM
   1 C1            -0.0180     1.4737     0.0101 C.2     
   2 C2             0.0021    -0.0041     0.0020 C.ar    
   3 C3             1.2186    -0.6886    -0.0133 C.ar    
   4 C4             1.2302    -2.0681    -0.0208 C.ar    
   5 C5             0.0396    -2.7730    -0.0138 C.ar    
   6 C6            -1.1696    -2.1007     0.0009 C.ar    
   7 C7            -1.1954    -0.7215     0.0154 C.ar    
   8 O8             1.0264     2.0958     0.0035 O.2     
   9 N9            -1.1942     2.1317     0.0193 N.am    
  10 C10            0.0601    -4.2799    -0.0226 C.3     
  11 O11           -2.0589    -1.5352     6.2757 O.3     
  12 C12           -2.2868    -1.6208     7.6947 C.3     
  13 O13           -2.7851    -2.9586     7.8813 O.3     
  14 C14           -2.2592    -3.6912     6.8559 C.ar    
  15 C15           -1.8138    -2.8154     5.8684 C.ar    
  16 C16           -2.1214    -5.0567     6.6827 C.ar    
  17 C17           -1.5408    -5.5656     5.5249 C.ar    
  18 C18           -1.1072    -4.6811     4.5419 C.ar    
  19 C19           -1.2376    -3.3188     4.7143 C.ar    
  20 O20           -1.2977    -6.8592     5.1674 O.3     
  21 C21           -0.5608    -5.5219     3.4192 C.3     
  22 C22           -1.0857    -6.9270     3.7441 C.3     
  23 N23            0.0796    -4.7761     1.3557 N.am    
  24 C24           -1.0286    -5.0466     2.0738 C.2     
  25 C25            0.9373    -5.4851     3.3552 C.ar    
  26 C26            1.9358    -5.7967     4.2508 C.ar    
  27 C27            3.2628    -5.6551     3.8861 C.ar    
  28 C28            3.5839    -5.1993     2.6204 C.ar    
  29 C29            2.5874    -4.8848     1.7201 C.ar    
  30 C30            1.2488    -5.0247     2.0785 C.ar    
  31 O31           -2.1782    -4.9296     1.7053 O.2     
  32 S32           -2.6276     4.4806     0.0389 S.3     
  33 C33           -1.2130     3.5205     0.0269 C.2     
  34 N34           -0.1605     4.2775     0.0265 N.2     
  35 C35           -0.3626     5.5817     0.0349 C.2     
  36 C36           -1.6469     5.9442     0.0428 C.2     
  37 C37           -2.1675     7.3584     0.0533 C.3     
  38 H38            2.1486    -0.1395    -0.0195 H       
  39 H39            2.1706    -2.5989    -0.0327 H       
  40 H40           -2.0953    -2.6570     0.0057 H       
  41 H41           -2.1398    -0.1980     0.0321 H       
  42 H42           -2.0276     1.6353     0.0206 H       
  43 H43           -0.8297    -4.6523    -0.5303 H       
  44 H44            0.9500    -4.6281    -0.5468 H       
  45 H45           -1.3545    -1.4796     8.2415 H       
  46 H46           -3.0305    -0.8880     8.0080 H       
  47 H47           -2.4667    -5.7324     7.4512 H       
  48 H48           -0.8897    -2.6431     3.9469 H       
  49 H49           -0.3412    -7.6845     3.4992 H       
  50 H50           -2.0227    -7.1205     3.2219 H       
  51 H51            1.6827    -6.1523     5.2387 H       
  52 H52            4.0462    -5.9003     4.5880 H       
  53 H53            4.6198    -5.0886     2.3358 H       
  54 H54            2.8460    -4.5290     0.7338 H       
  55 H55            0.4459     6.2977     0.0359 H       
  56 H56           -3.2573     7.3443     0.0586 H       
  57 H57           -1.8064     7.8718     0.9444 H       
  58 H58           -1.8151     7.8818    -0.8355 H       
@<TRIPOS>BOND
   1    1    2 1
   2    1    8 2
   3    1    9 am
   4    2    3 ar
   5    2    7 ar
   6    3    4 ar
   7    3   38 1
   8    4    5 ar
   9    4   39 1
  10    5    6 ar
  11    5   10 1
  12    6    7 ar
  13    6   40 1
  14    7   41 1
  15    9   33 1
  16    9   42 1
  17   10   23 1
  18   10   43 1
  19   10   44 1
  20   11   12 1
  21   11   15 1
  22   12   13 1
  23   12   45 1
  24   12   46 1
  25   13   14 1
  26   14   15 ar
  27   14   16 ar
  28   15   19 ar
  29   16   17 ar
  30   16   47 1
  31   17   18 ar
  32   17   20 1
  33   18   19 ar
  34   18   21 1
  35   19   48 1
  36   20   22 1
  37   21   22 1
  38   21   24 1
  39   21   25 1
  40   22   49 1
  41   22   50 1
  42   23   24 am
  43   23   30 1
  44   24   31 2
  45   25   26 ar
  46   25   30 ar
  47   26   27 ar
  48   26   51 1
  49   27   28 ar
  50   27   52 1
  51   28   29 ar
  52   28   53 1
  53   29   30 ar
  54   29   54 1
  55   32   33 1
  56   32   36 1
  57   33   34 2
  58   34   35 1
  59   35   36 2
  60   35   55 1
  61   36   37 1
  62   37   56 1
  63   37   57 1
  64   37   58 1

#	End of record

