#	Name: ASD00069192
#	Creating user name:	WinNT
#	Creation time:	15. 06. 2019 18:29

#	Modifying user name:	WinNT
#	Modification time:	15. 06. 2019 18:29

#	Program:	/corina/corina34_cracker 3.40 0067  02.08.2006

@<TRIPOS>MOLECULE
ASD00069192
  70   74    0    0    0
SMALL
NO_CHARGES


@<TRIPOS>ATOM
   1 C1            -0.1025     1.2042    -0.5204 C.2     
   2 N2            -0.0060     0.0017     0.0015 N.2     
   3 C3             1.2396    -0.4542    -0.1807 C.2     
   4 C4             1.9489     0.5073    -0.8453 C.2     
   5 N5             1.1083     1.5443    -1.0573 N.pl3   
   6 C6            -1.3148     2.0432    -0.5309 C.2     
   7 O7            -1.2875     3.1449    -1.0454 O.2     
   8 N8            -2.4533     1.5893     0.0296 N.am    
   9 C9             1.4600    -3.8922     1.3294 C.ar    
  10 C10            0.9365    -2.6778     0.9363 C.ar    
  11 C11            1.7591    -1.7714     0.2614 C.ar    
  12 C12            3.0849    -2.1402     0.0140 C.ar    
  13 C13            3.5270    -3.3745     0.4419 C.ar    
  14 N14            2.7174    -4.2014     1.0761 N.ar    
  15 C15            0.5858    -4.8761     2.0633 C.3     
  16 C16           -3.5699     2.4292     0.1255 C.ar    
  17 C17           -4.8547     1.8991     0.0157 C.ar    
  18 C18           -5.9574     2.7375     0.1117 C.ar    
  19 C19           -5.7781     4.0948     0.3159 C.ar    
  20 C20           -4.5031     4.6189     0.4242 C.ar    
  21 C21           -3.4005     3.7899     0.3359 C.ar    
  22 F22           -7.2045     2.2290     0.0054 F       
  23 N23           -5.0327     0.5252    -0.1914 N.3     
  24 C24           -5.8082    -0.0756     0.9013 C.3     
  25 C25           -5.8584    -1.5941     0.7180 C.3     
  26 C26           -6.5055    -1.9194    -0.6310 C.3     
  27 C27           -5.7066    -1.2421    -1.7480 C.3     
  28 C28           -5.6608     0.2663    -1.4932 C.3     
  29 C29           -6.5035    -3.4113    -0.8439 C.2     
  30 O30           -5.6103    -3.9322    -1.4777 O.2     
  31 N31           -7.4943    -4.1666    -0.3299 N.am    
  32 C32           -7.4599    -5.6341    -0.4337 C.3     
  33 C33           -7.7038    -6.2233     0.9603 C.3     
  34 O34           -8.8939    -5.6536     1.5105 O.3     
  35 C35           -8.8285    -4.2392     1.7080 C.3     
  36 C36           -8.6395    -3.5486     0.3572 C.3     
  37 C37           -7.8663    -7.7408     0.8524 C.3     
  38 N38           -8.0999    -8.3045     2.1886 N.3     
  39 H39            2.9852     0.4495    -1.1439 H       
  40 H40            1.3240     2.3759    -1.5076 H       
  41 H41           -2.4994     0.6809     0.3665 H       
  42 H42           -0.0937    -2.4313     1.1465 H       
  43 H43            3.7529    -1.4686    -0.5048 H       
  44 H44            4.5493    -3.6685     0.2551 H       
  45 H45            0.0883    -5.5269     1.3443 H       
  46 H46            1.1994    -5.4776     2.7340 H       
  47 H47           -0.1627    -4.3354     2.6425 H       
  48 H48           -6.6363     4.7462     0.3905 H       
  49 H49           -4.3685     5.6786     0.5831 H       
  50 H50           -2.4065     4.2025     0.4258 H       
  51 H51           -5.3349     0.1597     1.8546 H       
  52 H52           -6.8217     0.3253     0.8904 H       
  53 H53           -4.8460    -1.9973     0.7426 H       
  54 H54           -6.4472    -2.0382     1.5206 H       
  55 H55           -7.5311    -1.5504    -0.6415 H       
  56 H56           -4.6919    -1.6397    -1.7622 H       
  57 H57           -6.1871    -1.4347    -2.7073 H       
  58 H58           -6.6751     0.6655    -1.4929 H       
  59 H59           -5.0806     0.7498    -2.2791 H       
  60 H60           -8.2392    -5.9722    -1.1167 H       
  61 H61           -6.4848    -5.9533    -0.8018 H       
  62 H62           -6.8570    -5.9921     1.6065 H       
  63 H63           -9.7535    -3.8928     2.1691 H       
  64 H64           -7.9859    -4.0008     2.3569 H       
  65 H65           -8.4451    -2.4874     0.5127 H       
  66 H66           -9.5396    -3.6731    -0.2447 H       
  67 H67           -8.7147    -7.9705     0.2077 H       
  68 H68           -6.9602    -8.1740     0.4286 H       
  69 H69           -8.8979    -7.8718     2.6291 H       
  70 H70           -8.2106    -9.3064     2.1441 H       
@<TRIPOS>BOND
   1    1    2 2
   2    1    5 1
   3    1    6 1
   4    2    3 1
   5    3    4 2
   6    3   11 1
   7    4    5 1
   8    4   39 1
   9    5   40 1
  10    6    7 2
  11    6    8 am
  12    8   16 1
  13    8   41 1
  14    9   10 ar
  15    9   14 ar
  16    9   15 1
  17   10   11 ar
  18   10   42 1
  19   11   12 ar
  20   12   13 ar
  21   12   43 1
  22   13   14 ar
  23   13   44 1
  24   15   45 1
  25   15   46 1
  26   15   47 1
  27   16   17 ar
  28   16   21 ar
  29   17   18 ar
  30   17   23 1
  31   18   19 ar
  32   18   22 1
  33   19   20 ar
  34   19   48 1
  35   20   21 ar
  36   20   49 1
  37   21   50 1
  38   23   24 1
  39   23   28 1
  40   24   25 1
  41   24   51 1
  42   24   52 1
  43   25   26 1
  44   25   53 1
  45   25   54 1
  46   26   27 1
  47   26   29 1
  48   26   55 1
  49   27   28 1
  50   27   56 1
  51   27   57 1
  52   28   58 1
  53   28   59 1
  54   29   30 2
  55   29   31 am
  56   31   32 1
  57   31   36 1
  58   32   33 1
  59   32   60 1
  60   32   61 1
  61   33   34 1
  62   33   37 1
  63   33   62 1
  64   34   35 1
  65   35   36 1
  66   35   63 1
  67   35   64 1
  68   36   65 1
  69   36   66 1
  70   37   38 1
  71   37   67 1
  72   37   68 1
  73   38   69 1
  74   38   70 1

#	End of record

