#	Name: ASD01812428
#	Creating user name:	WinNT
#	Creation time:	15. 06. 2019 19:28

#	Modifying user name:	WinNT
#	Modification time:	15. 06. 2019 19:28

#	Program:	/corina/corina34_cracker 3.40 0067  02.08.2006

@<TRIPOS>MOLECULE
ASD01812428
  52   55    0    0    0
SMALL
NO_CHARGES


@<TRIPOS>ATOM
   1 C1            -0.0217     1.4815     0.0523 C.ar    
   2 C2            -0.0918     0.1586     0.4451 C.ar    
   3 C3             1.0679    -0.5728     0.6225 C.ar    
   4 C4             2.2980     0.0155     0.4057 C.ar    
   5 C5             2.3779     1.3468     0.0089 C.ar    
   6 C6             1.2108     2.0807    -0.1656 C.ar    
   7 N7             3.6413     1.9064    -0.2066 N.3     
   8 C8             3.6125     3.3728    -0.1548 C.3     
   9 C9             2.4858     3.8730    -1.0681 C.3     
  10 O10            1.2456     3.3886    -0.5424 O.3     
  11 C11            4.6253     1.3654     0.7405 C.3     
  12 C12            5.9922     1.9058     0.4082 C.ar    
  13 C13            6.7670     1.2994    -0.5622 C.ar    
  14 C14            6.4855     3.0210     1.0683 C.ar    
  15 C15            7.7476     3.4837     0.7300 C.ar    
  16 C16            8.4681     2.8219    -0.2482 C.ar    
  17 N17            7.9642     1.7661    -0.8590 N.ar    
  18 N18            3.5069     6.0523    -1.6393 N.am    
  19 C19            2.4771     5.3798    -1.0883 C.2     
  20 C20            3.4985     7.5171    -1.6590 C.3     
  21 C21            4.3704     8.0167    -2.8128 C.3     
  22 C22            4.3615     9.5465    -2.8334 C.3     
  23 C23            4.9144    10.0776    -1.5093 C.3     
  24 C24            4.0426     9.5780    -0.3555 C.3     
  25 C25            4.0514     8.0482    -0.3350 C.3     
  26 O26            3.8540     7.5207    -4.0495 O.3     
  27 O27            1.5434     5.9873    -0.6088 O.2     
  28 Cl28          10.0498     3.3910    -0.6821 Cl      
  29 H29           -0.9292     2.0496    -0.0898 H       
  30 H30           -1.0530    -0.3041     0.6139 H       
  31 H31            1.0116    -1.6061     0.9315 H       
  32 H32            3.2015    -0.5595     0.5450 H       
  33 H33            3.4263     3.6992     0.8684 H       
  34 H34            4.5670     3.7699    -0.5003 H       
  35 H35            2.6321     3.4915    -2.0786 H       
  36 H36            4.3544     1.6607     1.7542 H       
  37 H37            4.6375     0.2777     0.6700 H       
  38 H38            6.3878     0.4329    -1.0834 H       
  39 H39            5.9000     3.5176     1.8279 H       
  40 H40            8.1630     4.3499     1.2236 H       
  41 H41            4.2537     5.5664    -2.0229 H       
  42 H42            2.4772     7.8728    -1.7950 H       
  43 H43            5.3917     7.6611    -2.6768 H       
  44 H44            4.9827     9.9025    -3.6553 H       
  45 H45            3.3402     9.9022    -2.9694 H       
  46 H46            5.9358     9.7219    -1.3733 H       
  47 H47            4.9082    11.1675    -1.5240 H       
  48 H48            4.4365     9.9564     0.5878 H       
  49 H49            3.0212     9.9337    -0.4915 H       
  50 H50            3.4303     7.6923     0.4870 H       
  51 H51            5.0727     7.6925    -0.1990 H       
  52 H52            4.3586     7.7985    -4.8261 H       
@<TRIPOS>BOND
   1    1    2 ar
   2    1    6 ar
   3    1   29 1
   4    2    3 ar
   5    2   30 1
   6    3    4 ar
   7    3   31 1
   8    4    5 ar
   9    4   32 1
  10    5    7 1
  11    5    6 ar
  12    6   10 1
  13    7   11 1
  14    7    8 1
  15    8    9 1
  16    8   33 1
  17    8   34 1
  18    9   10 1
  19    9   19 1
  20    9   35 1
  21   11   12 1
  22   11   36 1
  23   11   37 1
  24   12   14 ar
  25   12   13 ar
  26   13   17 ar
  27   13   38 1
  28   14   15 ar
  29   14   39 1
  30   15   16 ar
  31   15   40 1
  32   16   17 ar
  33   16   28 1
  34   18   19 am
  35   18   20 1
  36   18   41 1
  37   19   27 2
  38   20   21 1
  39   20   25 1
  40   20   42 1
  41   21   22 1
  42   21   26 1
  43   21   43 1
  44   22   23 1
  45   22   44 1
  46   22   45 1
  47   23   24 1
  48   23   46 1
  49   23   47 1
  50   24   25 1
  51   24   48 1
  52   24   49 1
  53   25   50 1
  54   25   51 1
  55   26   52 1

#	End of record

