#	Name: ASD03731513
#	Creating user name:	WinNT
#	Creation time:	15. 06. 2019 20:45

#	Modifying user name:	WinNT
#	Modification time:	15. 06. 2019 20:45

#	Program:	/corina/corina34_cracker 3.40 0067  02.08.2006

@<TRIPOS>MOLECULE
ASD03731513
  60   64    0    0    0
SMALL
NO_CHARGES


@<TRIPOS>ATOM
   1 C1            -0.0184     1.5028     0.0103 C.2     
   2 C2             0.0021    -0.0041     0.0020 C.3     
   3 C3             1.4513    -0.4944    -0.0145 C.3     
   4 C4             1.4720    -2.0242    -0.0229 C.3     
   5 C5             2.9213    -2.5145    -0.0393 C.3     
   6 C6             2.9420    -4.0444    -0.0478 C.3     
   7 O7             1.0236     2.1234     0.0037 O.2     
   8 N8            -1.1946     2.1607     0.0195 N.am    
   9 C9            -1.2145     3.6256     0.0275 C.3     
  10 C10           -2.6637     4.1159     0.0371 C.3     
  11 C11           -2.6845     5.6457     0.0455 C.3     
  12 O12           -8.8979     2.7393     2.1988 O.3     
  13 C13          -10.3150     2.7928     2.4481 C.3     
  14 O14          -10.5201     4.1171     2.9744 O.3     
  15 C15           -9.5165     4.8794     2.4484 C.ar    
  16 C16           -8.5189     4.0315     1.9726 C.ar    
  17 C17           -9.3717     6.2503     2.3343 C.ar    
  18 C18           -8.2322     6.7925     1.7475 C.ar    
  19 C19           -7.2388     5.9357     1.2835 C.ar    
  20 C20           -7.3830     4.5682     1.3902 C.ar    
  21 O21           -7.9033     8.0972     1.5243 O.3     
  22 C22           -6.1403     6.8084     0.7378 C.3     
  23 C23           -6.4846     8.1968     1.2939 C.3     
  24 N24           -4.0722     6.1152     0.0546 N.am    
  25 C25           -4.7795     6.3508     1.1777 C.2     
  26 C26           -6.0970     6.8011    -0.7615 C.ar    
  27 C27           -7.0126     7.1140    -1.7413 C.ar    
  28 C28           -6.6642     7.0046    -3.0758 C.ar    
  29 C29           -5.3947     6.5797    -3.4231 C.ar    
  30 C30           -4.4744     6.2642    -2.4454 C.ar    
  31 C31           -4.8162     6.3718    -1.0995 C.ar    
  32 O32           -4.3925     6.2192     2.3196 O.2     
  33 H33           -0.4983    -0.3791     0.8948 H       
  34 H34           -0.5153    -0.3696    -0.8850 H       
  35 H35            1.9516    -0.1193    -0.9073 H       
  36 H36            1.9686    -0.1289     0.8726 H       
  37 H37            0.9717    -2.3993     0.8699 H       
  38 H38            0.9547    -2.3897    -0.9099 H       
  39 H39            3.4216    -2.1395    -0.9321 H       
  40 H40            3.4386    -2.1490     0.8477 H       
  41 H41            3.9745    -4.3937    -0.0595 H       
  42 H42            2.4417    -4.4194     0.8450 H       
  43 H43            2.4247    -4.4099    -0.9348 H       
  44 H44           -2.0280     1.6644     0.0207 H       
  45 H45           -0.7014     3.9910     0.9171 H       
  46 H46           -0.7098     4.0007    -0.8628 H       
  47 H47           -3.1768     3.7505    -0.8525 H       
  48 H48           -3.1683     3.7408     0.9274 H       
  49 H49           -2.1714     6.0112     0.9350 H       
  50 H50           -2.1798     6.0209    -0.8449 H       
  51 H51          -10.8722     2.6586     1.5209 H       
  52 H52          -10.6034     2.0402     3.1818 H       
  53 H53          -10.1480     6.9043     2.7032 H       
  54 H54           -6.6078     3.9142     1.0188 H       
  55 H55           -6.2650     8.9729     0.5607 H       
  56 H56           -5.9530     8.3828     2.2271 H       
  57 H57           -8.0034     7.4455    -1.4678 H       
  58 H58           -7.3818     7.2508    -3.8445 H       
  59 H59           -5.1228     6.4942    -4.4648 H       
  60 H60           -3.4852     5.9325    -2.7244 H       
@<TRIPOS>BOND
   1    1    2 1
   2    1    7 2
   3    1    8 am
   4    2    3 1
   5    2   33 1
   6    2   34 1
   7    3    4 1
   8    3   35 1
   9    3   36 1
  10    4    5 1
  11    4   37 1
  12    4   38 1
  13    5    6 1
  14    5   39 1
  15    5   40 1
  16    6   41 1
  17    6   42 1
  18    6   43 1
  19    8    9 1
  20    8   44 1
  21    9   10 1
  22    9   45 1
  23    9   46 1
  24   10   11 1
  25   10   47 1
  26   10   48 1
  27   11   24 1
  28   11   49 1
  29   11   50 1
  30   12   13 1
  31   12   16 1
  32   13   14 1
  33   13   51 1
  34   13   52 1
  35   14   15 1
  36   15   16 ar
  37   15   17 ar
  38   16   20 ar
  39   17   18 ar
  40   17   53 1
  41   18   19 ar
  42   18   21 1
  43   19   20 ar
  44   19   22 1
  45   20   54 1
  46   21   23 1
  47   22   23 1
  48   22   25 1
  49   22   26 1
  50   23   55 1
  51   23   56 1
  52   24   25 am
  53   24   31 1
  54   25   32 2
  55   26   27 ar
  56   26   31 ar
  57   27   28 ar
  58   27   57 1
  59   28   29 ar
  60   28   58 1
  61   29   30 ar
  62   29   59 1
  63   30   31 ar
  64   30   60 1

#	End of record

