#	Name: ASD01900100
#	Creating user name:	WinNT
#	Creation time:	15. 06. 2019 19:51

#	Modifying user name:	WinNT
#	Modification time:	15. 06. 2019 19:51

#	Program:	/corina/corina34_cracker 3.40 0067  02.08.2006

@<TRIPOS>MOLECULE
ASD01900100
  38   41    0    0    0
SMALL
NO_CHARGES


@<TRIPOS>ATOM
   1 C1            -0.0168     1.3890     0.0097 C.ar    
   2 C2             0.0021    -0.0041     0.0020 C.ar    
   3 C3             1.2224    -0.6606    -0.0131 C.ar    
   4 C4             2.3820     0.0992    -0.0201 C.ar    
   5 C5             2.2884     1.4815    -0.0118 C.ar    
   6 N6             1.1169     2.0792     0.0026 N.ar    
   7 C7            -1.3131     2.1060     0.0197 C.2     
   8 O8            -2.3544     1.4790     0.0212 O.2     
   9 N9            -1.3379     3.4535     0.0271 N.am    
  10 N10           -4.0732     5.7272     0.0534 N.am    
  11 N11           -4.7377     4.4942     0.0499 N.2     
  12 C12           -3.8404     3.5422     0.0399 C.2     
  13 C13           -2.5688     4.1343     0.0366 C.2     
  14 C14           -2.7375     5.4816     0.0451 C.2     
  15 S15           -4.7895     7.2203     0.0593 S.o2    
  16 O16           -3.8372     8.1244    -0.4836 O.2     
  17 O17           -6.0907     7.0433    -0.4837 O.2     
  18 O18           -5.2977     8.8820     5.6728 O.3     
  19 C19           -4.2438     9.8631     5.6646 C.3     
  20 O20           -3.3845     9.4332     4.5922 O.3     
  21 C21           -4.1927     8.7522     3.7282 C.ar    
  22 C22           -5.3693     8.4133     4.3928 C.ar    
  23 C23           -4.0194     8.3854     2.4040 C.ar    
  24 C24           -5.0126     7.6851     1.7442 C.ar    
  25 C25           -6.1800     7.3492     2.4034 C.ar    
  26 C26           -6.3597     7.7117     3.7257 C.ar    
  27 H27           -0.9212    -0.5644     0.0082 H       
  28 H28            1.2690    -1.7395    -0.0190 H       
  29 H29            3.3489    -0.3818    -0.0315 H       
  30 H30            3.1898     2.0764    -0.0168 H       
  31 H31           -0.5069     3.9539     0.0259 H       
  32 H32           -4.0440     2.4815     0.0350 H       
  33 H33           -1.9523     6.2231     0.0452 H       
  34 H34           -4.6457    10.8552     5.4591 H       
  35 H35           -3.7060     9.8554     6.6127 H       
  36 H36           -3.1083     8.6468     1.8863 H       
  37 H37           -6.9534     6.8022     1.8848 H       
  38 H38           -7.2727     7.4474     4.2385 H       
@<TRIPOS>BOND
   1    1    2 ar
   2    1    6 ar
   3    1    7 1
   4    2    3 ar
   5    2   27 1
   6    3    4 ar
   7    3   28 1
   8    4    5 ar
   9    4   29 1
  10    5    6 ar
  11    5   30 1
  12    7    8 2
  13    7    9 am
  14    9   13 1
  15    9   31 1
  16   10   11 1
  17   10   14 1
  18   10   15 am
  19   11   12 2
  20   12   13 1
  21   12   32 1
  22   13   14 2
  23   14   33 1
  24   15   16 2
  25   15   17 2
  26   15   24 1
  27   18   19 1
  28   18   22 1
  29   19   20 1
  30   19   34 1
  31   19   35 1
  32   20   21 1
  33   21   22 ar
  34   21   23 ar
  35   22   26 ar
  36   23   24 ar
  37   23   36 1
  38   24   25 ar
  39   25   26 ar
  40   25   37 1
  41   26   38 1

#	End of record

