#	Name: ASD02560252
#	Creating user name:	WinNT
#	Creation time:	15. 06. 2019 20:24

#	Modifying user name:	WinNT
#	Modification time:	15. 06. 2019 20:24

#	Program:	/corina/corina34_cracker 3.40 0067  02.08.2006

@<TRIPOS>MOLECULE
ASD02560252
  35   37    0    0    0
SMALL
NO_CHARGES


@<TRIPOS>ATOM
   1 N1             0.0291     1.2813     0.3709 N.2     
   2 N2             0.0478    -0.0051     0.3700 N.2     
   3 C3             1.2551    -0.4210     0.0745 C.2     
   4 O4             2.0182     0.6713    -0.1161 O.3     
   5 C5             1.2132     1.7339     0.0786 C.2     
   6 C6             1.6119     3.1836    -0.0236 C.3     
   7 N7             1.6684    -1.7377    -0.0228 N.pl3   
   8 C8             0.7352    -2.7733     0.0861 C.ar    
   9 C9            -0.5814    -2.5678    -0.3069 C.ar    
  10 C10           -1.5009    -3.5922    -0.1983 C.ar    
  11 C11           -1.1119    -4.8229     0.3016 C.ar    
  12 C12            0.1986    -5.0302     0.6941 C.ar    
  13 C13            1.1240    -4.0110     0.5819 C.ar    
  14 C14            2.0839     3.6709     1.3221 C.ar    
  15 C15            3.4198     3.5674     1.6659 C.ar    
  16 C16            3.8526     4.0153     2.9014 C.ar    
  17 C17            2.9505     4.5661     3.7920 C.ar    
  18 C18            1.6154     4.6694     3.4492 C.ar    
  19 C19            1.1824     4.2270     2.2118 C.ar    
  20 Cl20          -2.2706    -6.1085     0.4367 Cl      
  21 C21           -2.9293    -3.3699    -0.6239 C.3     
  22 Cl22           4.5529     2.8751     0.5477 Cl      
  23 Cl23          -0.4943     4.3573     1.7812 Cl      
  24 H24            2.4170     3.2886    -0.7509 H       
  25 H25            0.7539     3.7748    -0.3436 H       
  26 H26            2.6056    -1.9425    -0.1665 H       
  27 H27           -0.8855    -1.6076    -0.6967 H       
  28 H28            0.4992    -5.9913     1.0845 H       
  29 H29            2.1468    -4.1734     0.8881 H       
  30 H30            4.8955     3.9343     3.1700 H       
  31 H31            3.2888     4.9156     4.7562 H       
  32 H32            0.9108     5.0992     4.1458 H       
  33 H33           -3.0389    -3.6278    -1.6773 H       
  34 H34           -3.5888    -3.9984    -0.0254 H       
  35 H35           -3.1935    -2.3226    -0.4769 H       
@<TRIPOS>BOND
   1    1    2 1
   2    1    5 2
   3    2    3 2
   4    3    4 1
   5    3    7 1
   6    4    5 1
   7    5    6 1
   8    6   14 1
   9    6   24 1
  10    6   25 1
  11    7    8 1
  12    7   26 1
  13    8    9 ar
  14    8   13 ar
  15    9   10 ar
  16    9   27 1
  17   10   11 ar
  18   10   21 1
  19   11   12 ar
  20   11   20 1
  21   12   13 ar
  22   12   28 1
  23   13   29 1
  24   14   15 ar
  25   14   19 ar
  26   15   16 ar
  27   15   22 1
  28   16   17 ar
  29   16   30 1
  30   17   18 ar
  31   17   31 1
  32   18   19 ar
  33   18   32 1
  34   19   23 1
  35   21   33 1
  36   21   34 1
  37   21   35 1

#	End of record

