#	Name: ASD01478081
#	Creating user name:	WinNT
#	Creation time:	15. 06. 2019 19:21

#	Modifying user name:	WinNT
#	Modification time:	15. 06. 2019 19:21

#	Program:	/corina/corina34_cracker 3.40 0067  02.08.2006

@<TRIPOS>MOLECULE
ASD01478081
  38   39    0    0    0
SMALL
NO_CHARGES


@<TRIPOS>ATOM
   1 C1            -0.0187     1.5258     0.0104 C.3     
   2 C2             0.0021    -0.0041     0.0020 C.3     
   3 O3            -0.4954    -0.4941     1.2488 O.3     
   4 C4             0.4451    -1.2831     1.9802 C.3     
   5 C5             0.8023    -0.5705     3.2861 C.3     
   6 O6             2.1262    -0.0407     3.1929 O.3     
   7 C7             2.1901     1.3839     3.2857 C.3     
   8 C8             2.7568     1.9548     1.9843 C.3     
   9 O9             1.7210     2.6329     1.2707 O.3     
  10 C10            1.4167     2.0554    -0.0004 C.3     
  11 C11           -1.3701     3.1803    -1.0527 C.2     
  12 O12           -2.0396     3.6815    -2.1037 O.3     
  13 O13           -1.3506     3.7861    -0.0000 O.2     
  14 O14           -0.7209     2.0068    -1.1659 O.3     
  15 C15           -2.0174     5.9254    -2.1747 C.2     
  16 O16           -0.8795     6.0760    -2.5663 O.2     
  17 C17           -2.9973     7.0399    -1.8793 C.3     
  18 C18           -4.2673     6.2932    -1.4233 C.3     
  19 C19           -3.8715     4.8352    -1.5089 C.2     
  20 O20           -4.5876     3.8957    -1.2348 O.2     
  21 N21           -2.6074     4.7467    -1.9407 N.am    
  22 H22           -0.5289     1.8773     0.9072 H       
  23 H23           -0.6261    -0.3715    -0.8095 H       
  24 H24            1.0245    -0.3528    -0.1435 H       
  25 H25            0.0067    -2.2554     2.2050 H       
  26 H26            1.3465    -1.4204     1.3828 H       
  27 H27            0.0973     0.2422     3.4612 H       
  28 H28            0.7520    -1.2795     4.1124 H       
  29 H29            1.1893     1.7824     3.4519 H       
  30 H30            2.8359     1.6652     4.1175 H       
  31 H31            3.5589     2.6563     2.2142 H       
  32 H32            3.1487     1.1430     1.3716 H       
  33 H33            2.1053     1.2345    -0.2007 H       
  34 H34            1.5186     2.8129    -0.7775 H       
  35 H35           -2.6212     7.6799    -1.0812 H       
  36 H36           -3.1972     7.6232    -2.7781 H       
  37 H37           -4.5230     6.5617    -0.3982 H       
  38 H38           -5.0990     6.5050    -2.0952 H       
@<TRIPOS>BOND
   1    1    2 1
   2    1   10 1
   3    1   14 1
   4    1   22 1
   5    2    3 1
   6    2   23 1
   7    2   24 1
   8    3    4 1
   9    4    5 1
  10    4   25 1
  11    4   26 1
  12    5    6 1
  13    5   27 1
  14    5   28 1
  15    6    7 1
  16    7    8 1
  17    7   29 1
  18    7   30 1
  19    8    9 1
  20    8   31 1
  21    8   32 1
  22    9   10 1
  23   10   33 1
  24   10   34 1
  25   11   12 1
  26   11   13 2
  27   11   14 1
  28   12   21 1
  29   15   16 2
  30   15   17 1
  31   15   21 am
  32   17   18 1
  33   17   35 1
  34   17   36 1
  35   18   19 1
  36   18   37 1
  37   18   38 1
  38   19   20 2
  39   19   21 am

#	End of record

