#	Name: ASD07301259
#	Creating user name:	WinNT
#	Creation time:	15. 06. 2019 21:11

#	Modifying user name:	WinNT
#	Modification time:	15. 06. 2019 21:11

#	Program:	/corina/corina34_cracker 3.40 0067  02.08.2006

@<TRIPOS>MOLECULE
ASD07301259
  39   40    0    0    0
SMALL
NO_CHARGES


@<TRIPOS>ATOM
   1 C1            -0.0169     1.4661     0.0587 C.2     
   2 C2             0.0021    -0.0040     0.0010 C.2     
   3 C3             1.2715    -0.6339    -0.0636 C.2     
   4 C4             2.3706     0.1578    -0.0675 C.2     
   5 N5             2.2550     1.5070    -0.0114 N.pl3   
   6 N6             1.1280     2.1149     0.0478 N.2     
   7 O7            -1.0314    -0.6546     0.0087 O.2     
   8 C8            -1.2981     2.2008     0.1216 C.2     
   9 C9            -1.3010     3.6123     0.1767 C.2     
  10 C10           -2.4729     4.2842     0.2342 C.2     
  11 O11           -2.3517     1.5888     0.1260 O.2     
  12 N12           -2.4756     5.6484     0.2874 N.pl3   
  13 C13           -1.2088     6.3842     0.2822 C.3     
  14 C14           -3.7454     6.3765     0.3498 C.3     
  15 C15            3.4243     2.2747    -0.0184 C.ar    
  16 C16            4.6635     1.6549     0.0712 C.ar    
  17 C17            5.8195     2.4190     0.0634 C.ar    
  18 C18            5.7364     3.8012    -0.0339 C.ar    
  19 C19            4.5023     4.4165    -0.1230 C.ar    
  20 C20            3.3475     3.6581    -0.1209 C.ar    
  21 O21            7.0340     1.8154     0.1514 O.3     
  22 C22            8.1831     2.6648     0.1375 C.3     
  23 F23            8.2106     3.3926    -1.0570 F       
  24 F24            8.1230     3.5484     1.2205 F       
  25 H25            1.3588    -1.7094    -0.1078 H       
  26 H26            3.3514    -0.2918    -0.1156 H       
  27 H27           -0.3671     4.1547     0.1728 H       
  28 H28           -3.4067     3.7418     0.2381 H       
  29 H29           -0.9221     6.6067    -0.7456 H       
  30 H30           -1.3273     7.3155     0.8360 H       
  31 H31           -0.4345     5.7780     0.7522 H       
  32 H32           -4.5721     5.6662     0.3442 H       
  33 H33           -3.7806     6.9679     1.2647 H       
  34 H34           -3.8282     7.0371    -0.5133 H       
  35 H35            4.7263     0.5794     0.1471 H       
  36 H36            6.6374     4.3965    -0.0396 H       
  37 H37            4.4406     5.4921    -0.1985 H       
  38 H38            2.3845     4.1412    -0.1951 H       
  39 H39            9.0849     2.0574     0.2137 H       
@<TRIPOS>BOND
   1    1    2 1
   2    1    6 2
   3    1    8 1
   4    2    3 1
   5    2    7 2
   6    3    4 2
   7    3   25 1
   8    4    5 1
   9    4   26 1
  10    5    6 1
  11    5   15 1
  12    8    9 1
  13    8   11 2
  14    9   10 2
  15    9   27 1
  16   10   12 1
  17   10   28 1
  18   12   13 1
  19   12   14 1
  20   13   29 1
  21   13   30 1
  22   13   31 1
  23   14   32 1
  24   14   33 1
  25   14   34 1
  26   15   16 ar
  27   15   20 ar
  28   16   17 ar
  29   16   35 1
  30   17   18 ar
  31   17   21 1
  32   18   19 ar
  33   18   36 1
  34   19   20 ar
  35   19   37 1
  36   20   38 1
  37   21   22 1
  38   22   23 1
  39   22   24 1
  40   22   39 1

#	End of record

