#	Name: ASD04910047
#	Creating user name:	WinNT
#	Creation time:	15. 06. 2019 20:55

#	Modifying user name:	WinNT
#	Modification time:	15. 06. 2019 20:55

#	Program:	/corina/corina34_cracker 3.40 0067  02.08.2006

@<TRIPOS>MOLECULE
ASD04910047
  72   76    0    0    0
SMALL
NO_CHARGES


@<TRIPOS>ATOM
   1 C1             0.2335     1.3816     1.3782 C.ar    
   2 C2            -0.0504     0.5603     0.3025 C.ar    
   3 C3             0.9687    -0.1141    -0.3411 C.ar    
   4 C4             2.2795     0.0332     0.0931 C.ar    
   5 C5             2.5613     0.8587     1.1736 C.ar    
   6 C6             1.5378     1.5304     1.8130 C.ar    
   7 C7            -0.8800     2.1210     2.0741 C.3     
   8 C8            -0.9339     1.6966     3.5431 C.3     
   9 C9            -2.0645     2.4472     4.2497 C.3     
  10 C10           -1.8089     3.9532     4.1630 C.3     
  11 C11           -1.7550     4.3777     2.6940 C.3     
  12 C12           -0.6245     3.6270     1.9874 C.3     
  13 N13            3.3141    -0.6492    -0.5565 N.am    
  14 C14            3.3787    -1.9939    -0.4929 C.2     
  15 C15            4.3272     0.0981    -1.3058 C.3     
  16 C16            5.4723     0.4481    -0.3908 C.ar    
  17 O17            4.2292    -2.5922    -1.1230 O.2     
  18 N18            2.5005    -2.6754     0.2693 N.am    
  19 C19            2.5074    -4.0747     0.2633 C.ar    
  20 C20            1.3140    -4.7770     0.3702 C.ar    
  21 C21            3.7069    -4.7640     0.1449 C.ar    
  22 C22            3.7104    -6.1453     0.1394 C.ar    
  23 C23            2.5212    -6.8415     0.2517 C.ar    
  24 C24            1.3242    -6.1579     0.3641 C.ar    
  25 S25           -0.1893    -7.0498     0.4997 S.o2    
  26 O26            0.1881    -8.2962     1.0682 O.2     
  27 O27           -1.0582    -6.1626     1.1906 O.2     
  28 C28           -0.7387    -7.2724    -1.2147 C.3     
  29 C29            7.5922    -0.1069     0.5748 C.ar    
  30 C30            7.5760     1.0909     1.2915 C.ar    
  31 C31            6.4924     1.9610     1.1601 C.ar    
  32 C32            5.4474     1.6345     0.3207 C.ar    
  33 C33            6.5410    -0.4210    -0.2615 C.ar    
  34 C34            8.6989     1.4340     2.1894 C.2     
  35 N35            8.6802     2.5912     2.8799 N.am    
  36 O36            9.6392     0.6723     2.3050 O.2     
  37 C37            9.7424     2.9158     3.7293 C.2     
  38 N38           11.0738     3.8947     5.1404 N.pl3   
  39 N39           11.6051     2.7755     4.7828 N.2     
  40 N40           10.8332     2.1793     3.9450 N.2     
  41 N41            9.8512     4.0070     4.4581 N.2     
  42 H42           -1.0700     0.4459    -0.0345 H       
  43 H43            0.7462    -0.7557    -1.1809 H       
  44 H44            3.5796     0.9750     1.5139 H       
  45 H45            1.7563     2.1726     2.6534 H       
  46 H46           -1.8291     1.8852     1.5927 H       
  47 H47           -1.1160     0.6237     3.6048 H       
  48 H48            0.0152     1.9323     4.0245 H       
  49 H49           -3.0136     2.2115     3.7683 H       
  50 H50           -2.1029     2.1449     5.2962 H       
  51 H51           -2.6143     4.4880     4.6664 H       
  52 H52           -0.8598     4.1890     4.6444 H       
  53 H53           -2.7041     4.1419     2.2127 H       
  54 H54           -1.5729     5.4506     2.6323 H       
  55 H55            0.3246     3.8628     2.4688 H       
  56 H56           -0.5861     3.9294     0.9409 H       
  57 H57            4.6945    -0.5137    -2.1298 H       
  58 H58            3.8854     1.0128    -1.7013 H       
  59 H59            1.8636    -2.1959     0.8219 H       
  60 H60            0.3789    -4.2437     0.4584 H       
  61 H61            4.6361    -4.2207     0.0567 H       
  62 H62            4.6430    -6.6820     0.0469 H       
  63 H63            2.5265    -7.9215     0.2468 H       
  64 H64            0.0153    -7.8321    -1.7681 H       
  65 H65           -1.6801    -7.8217    -1.2262 H       
  66 H66           -0.8814    -6.2971    -1.6800 H       
  67 H67            8.4278    -0.7843     0.6718 H       
  68 H68            6.4737     2.8893     1.7118 H       
  69 H69            4.6083     2.3067     0.2184 H       
  70 H70            6.5522    -1.3476    -0.8162 H       
  71 H71            7.9298     3.1990     2.7877 H       
  72 H72           11.4479     4.5376     5.7630 H       
@<TRIPOS>BOND
   1    1    2 ar
   2    1    6 ar
   3    1    7 1
   4    2    3 ar
   5    2   42 1
   6    3    4 ar
   7    3   43 1
   8    4    5 ar
   9    4   13 1
  10    5    6 ar
  11    5   44 1
  12    6   45 1
  13    7    8 1
  14    7   12 1
  15    7   46 1
  16    8    9 1
  17    8   47 1
  18    8   48 1
  19    9   10 1
  20    9   49 1
  21    9   50 1
  22   10   11 1
  23   10   51 1
  24   10   52 1
  25   11   12 1
  26   11   53 1
  27   11   54 1
  28   12   55 1
  29   12   56 1
  30   13   14 am
  31   13   15 1
  32   14   17 2
  33   14   18 am
  34   15   16 1
  35   15   57 1
  36   15   58 1
  37   16   33 ar
  38   16   32 ar
  39   18   19 1
  40   18   59 1
  41   19   21 ar
  42   19   20 ar
  43   20   24 ar
  44   20   60 1
  45   21   22 ar
  46   21   61 1
  47   22   23 ar
  48   22   62 1
  49   23   24 ar
  50   23   63 1
  51   24   25 1
  52   25   26 2
  53   25   27 2
  54   25   28 1
  55   28   64 1
  56   28   65 1
  57   28   66 1
  58   29   30 ar
  59   29   33 ar
  60   29   67 1
  61   30   31 ar
  62   30   34 1
  63   31   32 ar
  64   31   68 1
  65   32   69 1
  66   33   70 1
  67   34   35 am
  68   34   36 2
  69   35   37 1
  70   35   71 1
  71   37   41 2
  72   37   40 1
  73   38   39 1
  74   38   41 1
  75   38   72 1
  76   39   40 2

#	End of record

