#	Name: ASD01231381
#	Creating user name:	WinNT
#	Creation time:	15. 06. 2019 19:15

#	Modifying user name:	WinNT
#	Modification time:	15. 06. 2019 19:15

#	Program:	/corina/corina34_cracker 3.40 0067  02.08.2006

@<TRIPOS>MOLECULE
ASD01231381
  50   52    0    0    0
SMALL
NO_CHARGES


@<TRIPOS>ATOM
   1 C1            -1.6000     1.7632     0.9197 C.3     
   2 C2            -1.7327     0.2647     1.1987 C.3     
   3 C3            -3.1959    -0.0716     1.4931 C.3     
   4 S4            -1.1770    -0.6719    -0.2520 S.o2    
   5 O5            -2.0666    -0.4762    -1.3427 O.2     
   6 O6             0.2281    -0.5432    -0.4204 O.2     
   7 N7            -1.3938    -2.2579     0.1723 N.am    
   8 C8            -1.5148    -3.4686     2.3300 C.3     
   9 C9            -0.6001    -2.8412     1.2567 C.3     
  10 C10            0.2044    -4.0588     0.7542 C.3     
  11 C11            0.2184    -5.0306     1.9147 C.ar    
  12 C12            1.0312    -6.1250     2.1591 C.ar    
  13 C13            0.8576    -6.8778     3.3039 C.ar    
  14 C14           -0.1304    -6.5385     4.2095 C.ar    
  15 C15           -0.9419    -5.4476     3.9675 C.ar    
  16 C16           -0.7694    -4.6914     2.8201 C.ar    
  17 C17            1.7447    -8.0675     3.5660 C.3     
  18 O18            2.8960    -7.6502     4.3025 O.3     
  19 C19            3.8041    -8.6090     4.6232 C.ar    
  20 C20            4.9455    -8.2740     5.3375 C.ar    
  21 C21            5.8671    -9.2503     5.6621 C.ar    
  22 C22            5.6531   -10.5607     5.2755 C.ar    
  23 C23            4.5169   -10.8969     4.5633 C.ar    
  24 C24            3.5888    -9.9252     4.2418 C.ar    
  25 C25            5.1798    -6.8460     5.7583 C.3     
  26 F26            6.3870    -6.7587     6.4599 F       
  27 F27            5.2396    -6.0294     4.6239 F       
  28 F28            4.1303    -6.4243     6.5817 F       
  29 H29           -1.9339     2.3260     1.7914 H       
  30 H30           -0.5575     2.0028     0.7100 H       
  31 H31           -2.2140     2.0283     0.0590 H       
  32 H32           -1.1186    -0.0004     2.0594 H       
  33 H33           -3.5068     0.4303     2.4093 H       
  34 H34           -3.8197     0.2646     0.6649 H       
  35 H35           -3.3036    -1.1495     1.6148 H       
  36 H36           -2.0463    -2.8007    -0.2973 H       
  37 H37           -1.6719    -2.7676     3.1498 H       
  38 H38           -2.4694    -3.7583     1.8909 H       
  39 H39            0.0610    -2.0957     1.6987 H       
  40 H40           -0.2878    -4.5073    -0.1087 H       
  41 H41            1.2211    -3.7608     0.4982 H       
  42 H42            1.8030    -6.3908     1.4520 H       
  43 H43           -0.2678    -7.1263     5.1051 H       
  44 H44           -1.7135    -5.1832     4.6754 H       
  45 H45            1.1944    -8.8110     4.1425 H       
  46 H46            2.0585    -8.5027     2.6172 H       
  47 H47            6.7556    -8.9900     6.2181 H       
  48 H48            6.3750   -11.3225     5.5300 H       
  49 H49            4.3523   -11.9210     4.2622 H       
  50 H50            2.6990   -10.1892     3.6897 H       
@<TRIPOS>BOND
   1    1    2 1
   2    1   29 1
   3    1   30 1
   4    1   31 1
   5    2    3 1
   6    2    4 1
   7    2   32 1
   8    3   33 1
   9    3   34 1
  10    3   35 1
  11    4    5 2
  12    4    6 2
  13    4    7 am
  14    7    9 1
  15    7   36 1
  16    8    9 1
  17    8   16 1
  18    8   37 1
  19    8   38 1
  20    9   10 1
  21    9   39 1
  22   10   11 1
  23   10   40 1
  24   10   41 1
  25   11   12 ar
  26   11   16 ar
  27   12   13 ar
  28   12   42 1
  29   13   14 ar
  30   13   17 1
  31   14   15 ar
  32   14   43 1
  33   15   16 ar
  34   15   44 1
  35   17   18 1
  36   17   45 1
  37   17   46 1
  38   18   19 1
  39   19   20 ar
  40   19   24 ar
  41   20   21 ar
  42   20   25 1
  43   21   22 ar
  44   21   47 1
  45   22   23 ar
  46   22   48 1
  47   23   24 ar
  48   23   49 1
  49   24   50 1
  50   25   26 1
  51   25   27 1
  52   25   28 1

#	End of record

