#	Name: ASD01150810
#	Creating user name:	WinNT
#	Creation time:	15. 06. 2019 19:05

#	Modifying user name:	WinNT
#	Modification time:	15. 06. 2019 19:05

#	Program:	/corina/corina34_cracker 3.40 0067  02.08.2006

@<TRIPOS>MOLECULE
ASD01150810
  53   54    0    0    0
SMALL
NO_CHARGES


@<TRIPOS>ATOM
   1 N1             0.2325     1.1235     0.1178 N.3     
   2 C2             0.3590    -0.2679     0.0756 C.3     
   3 C3             1.1794    -0.8049     1.2687 C.3     
   4 C4             2.6437    -0.5572     1.0095 C.3     
   5 C5             3.1354     0.7738     1.6123 C.3     
   6 C6             2.1191     1.9098     1.4050 C.3     
   7 C7             1.5070     1.8632     0.0274 C.3     
   8 C8            -0.7233     1.5962    -0.8926 C.3     
   9 C9            -1.0560     4.9404     0.6059 C.ar    
  10 N10           -0.8802     3.6421     0.4611 N.ar    
  11 C11           -0.9259     3.0813    -0.7365 C.ar    
  12 C12           -1.1622     3.8784    -1.8457 C.ar    
  13 C13           -1.3421     5.2389    -1.6534 C.ar    
  14 N14           -1.2827     5.7289    -0.4254 N.ar    
  15 C15           -1.6013     6.1484    -2.8267 C.3     
  16 S16           -0.0743     1.2453    -2.5498 S.3     
  17 C17           -2.5379     0.3299    -3.3076 C.3     
  18 C18           -1.0984    -0.1461    -3.1029 C.3     
  19 C19           -0.5487    -0.6909    -4.4228 C.3     
  20 C20            0.8439    -1.2804    -4.1907 C.3     
  21 C21            1.3936    -1.8251    -5.5106 C.3     
  22 C22            2.7862    -2.4147    -5.2785 C.3     
  23 H23           -0.6345    -0.7157     0.0973 H       
  24 H24            0.8548    -0.5515    -0.8528 H       
  25 H25            0.8780    -0.2887     2.1802 H       
  26 H26            1.0045    -1.8751     1.3793 H       
  27 H27            3.2211    -1.3743     1.4419 H       
  28 H28            2.8129    -0.5402    -0.0671 H       
  29 H29            3.3030     0.6387     2.6808 H       
  30 H30            4.0777     1.0505     1.1394 H       
  31 H31            1.3279     1.8194     2.1491 H       
  32 H32            2.6233     2.8669     1.5381 H       
  33 H33            2.1820     1.3513    -0.6584 H       
  34 H34            1.3201     2.8769    -0.3270 H       
  35 H35           -1.6760     1.0835    -0.7594 H       
  36 H36           -1.0176     5.3687     1.5966 H       
  37 H37           -1.2048     3.4495    -2.8360 H       
  38 H38           -2.6749     6.2187    -3.0016 H       
  39 H39           -1.2023     7.1399    -2.6130 H       
  40 H40           -1.1143     5.7443    -3.7142 H       
  41 H41           -3.1695    -0.5215    -3.5614 H       
  42 H42           -2.9020     0.7915    -2.3898 H       
  43 H43           -2.5679     1.0588    -4.1175 H       
  44 H44           -1.0797    -0.9332    -2.3491 H       
  45 H45           -1.2138    -1.4676    -4.8003 H       
  46 H46           -0.4843     0.1178    -5.1508 H       
  47 H47            1.5090    -0.5037    -3.8132 H       
  48 H48            0.7795    -2.0890    -3.4626 H       
  49 H49            0.7285    -2.6018    -5.8882 H       
  50 H50            1.4580    -1.0165    -6.2387 H       
  51 H51            3.4513    -1.6380    -4.9010 H       
  52 H52            2.7218    -3.2233    -4.5505 H       
  53 H53            3.1778    -2.8027    -6.2188 H       
@<TRIPOS>BOND
   1    1    2 1
   2    1    7 1
   3    1    8 1
   4    2    3 1
   5    2   23 1
   6    2   24 1
   7    3    4 1
   8    3   25 1
   9    3   26 1
  10    4    5 1
  11    4   27 1
  12    4   28 1
  13    5    6 1
  14    5   29 1
  15    5   30 1
  16    6    7 1
  17    6   31 1
  18    6   32 1
  19    7   33 1
  20    7   34 1
  21    8   11 1
  22    8   16 1
  23    8   35 1
  24    9   10 ar
  25    9   14 ar
  26    9   36 1
  27   10   11 ar
  28   11   12 ar
  29   12   13 ar
  30   12   37 1
  31   13   14 ar
  32   13   15 1
  33   15   38 1
  34   15   39 1
  35   15   40 1
  36   16   18 1
  37   17   18 1
  38   17   41 1
  39   17   42 1
  40   17   43 1
  41   18   19 1
  42   18   44 1
  43   19   20 1
  44   19   45 1
  45   19   46 1
  46   20   21 1
  47   20   47 1
  48   20   48 1
  49   21   22 1
  50   21   49 1
  51   21   50 1
  52   22   51 1
  53   22   52 1
  54   22   53 1

#	End of record

