#	Name: ASD01912953
#	Creating user name:	WinNT
#	Creation time:	15. 06. 2019 20:00

#	Modifying user name:	WinNT
#	Modification time:	15. 06. 2019 20:00

#	Program:	/corina/corina34_cracker 3.40 0067  02.08.2006

@<TRIPOS>MOLECULE
ASD01912953
  35   38    0    0    0
SMALL
NO_CHARGES


@<TRIPOS>ATOM
   1 C1            -0.1731     1.4284    -0.1999 C.2     
   2 C2            -0.1879    -0.0022    -0.2608 C.1     
   3 C3            -0.2001    -1.1751    -0.3107 C.1     
   4 C4            -0.2150    -2.6057    -0.3716 C.ar    
   5 C5            -1.4136    -3.2866    -0.6056 C.ar    
   6 C6             0.9700    -3.3285    -0.2031 C.ar    
   7 C7             0.9475    -4.7060    -0.2630 C.ar    
   8 C8            -0.2437    -5.3730    -0.4898 C.ar    
   9 C9            -1.4198    -4.6643    -0.6628 C.ar    
  10 N10            0.8884     2.1654     0.0128 N.2     
  11 C11            0.7392     3.4608     0.0414 C.2     
  12 C12           -0.5641     3.8781    -0.1724 C.2     
  13 S13           -1.5791     2.4707    -0.4071 S.3     
  14 C14            1.8271     4.4952     0.2931 C.3     
  15 C15            1.4629     5.7816    -0.4446 C.3     
  16 N16            0.0829     6.1906    -0.2120 N.am    
  17 C17           -0.9332     5.2975    -0.1960 C.2     
  18 O18           -2.0968     5.6545    -0.2013 O.2     
  19 C19           -0.2116     7.6082     0.0110 C.3     
  20 C20            0.5548     8.3220     1.1264 C.3     
  21 C21            0.8814     8.6203    -0.3383 C.3     
  22 H22           -2.3322    -2.7349    -0.7409 H       
  23 H23            1.9004    -2.8093    -0.0268 H       
  24 H24            1.8620    -5.2657    -0.1331 H       
  25 H25           -0.2548    -6.4519    -0.5364 H       
  26 H26           -2.3455    -5.1919    -0.8394 H       
  27 H27            1.9007     4.6954     1.3620 H       
  28 H28            2.7811     4.1195    -0.0768 H       
  29 H29            2.1274     6.5788    -0.1114 H       
  30 H30            1.6092     5.6279    -1.5138 H       
  31 H31           -1.2463     7.9058    -0.1587 H       
  32 H32            0.0244     9.0894     1.6902 H       
  33 H33            1.2782     7.7368     1.6942 H       
  34 H34            1.8196     8.2314    -0.7340 H       
  35 H35            0.5658     9.5840    -0.7381 H       
@<TRIPOS>BOND
   1    1    2 1
   2    1   10 2
   3    1   13 1
   4    2    3 3
   5    3    4 1
   6    4    5 ar
   7    4    6 ar
   8    5    9 ar
   9    5   22 1
  10    6    7 ar
  11    6   23 1
  12    7    8 ar
  13    7   24 1
  14    8    9 ar
  15    8   25 1
  16    9   26 1
  17   10   11 1
  18   11   12 2
  19   11   14 1
  20   12   13 1
  21   12   17 1
  22   14   15 1
  23   14   27 1
  24   14   28 1
  25   15   16 1
  26   15   29 1
  27   15   30 1
  28   16   17 am
  29   16   19 1
  30   17   18 2
  31   19   20 1
  32   19   21 1
  33   19   31 1
  34   20   21 1
  35   20   32 1
  36   20   33 1
  37   21   34 1
  38   21   35 1

#	End of record

