#	Name: ASD01885671
#	Creating user name:	WinNT
#	Creation time:	15. 06. 2019 19:50

#	Modifying user name:	WinNT
#	Modification time:	15. 06. 2019 19:50

#	Program:	/corina/corina34_cracker 3.40 0067  02.08.2006

@<TRIPOS>MOLECULE
ASD01885671
  45   48    0    0    0
SMALL
NO_CHARGES


@<TRIPOS>ATOM
   1 C1            -0.0160     1.3291     0.0093 C.ar    
   2 C2            -1.2522     2.0239     0.0189 C.ar    
   3 C3            -2.4598     1.2808     0.0210 C.ar    
   4 C4            -2.3703    -0.1044     0.0135 C.ar    
   5 C5            -1.1104    -0.7137     0.0043 C.ar    
   6 N6             0.0021    -0.0041     0.0020 N.ar    
   7 C7             1.1365     3.4282     0.0092 C.ar    
   8 C8            -0.0805     4.1063     0.0248 C.ar    
   9 C9            -1.2606     3.4245     0.0266 C.ar    
  10 C10           -3.7750     1.9611     0.0313 C.ar    
  11 C11           -1.0235    -2.1940    -0.0043 C.2     
  12 C12            2.4228     4.2133     0.0076 C.3     
  13 C13            1.1823     2.0683     0.0019 C.ar    
  14 N14            2.8497     4.4541     1.3882 N.am    
  15 C15           -4.7577     1.5985    -0.8903 C.ar    
  16 C16           -5.9812     2.2347    -0.8763 C.ar    
  17 C17           -6.2352     3.2331     0.0509 C.ar    
  18 C18           -5.2621     3.5972     0.9682 C.ar    
  19 C19           -4.0376     2.9626     0.9663 C.ar    
  20 F20           -7.4352     3.8537     0.0603 F       
  21 C21            3.6529     3.5634     1.9983 C.2     
  22 C22            4.1189     3.7999     3.4119 C.3     
  23 O23            3.1491     4.5980     4.0982 O.3     
  24 C24            2.8745     5.8395     3.4411 C.3     
  25 C25            2.4372     5.5653     2.0251 C.2     
  26 O26            4.0034     2.5645     1.4075 O.2     
  27 O27            1.7030     6.3466     1.4592 O.2     
  28 N28            0.1812    -2.7982    -0.0141 N.am    
  29 O29           -2.0383    -2.8621    -0.0023 O.2     
  30 H30           -3.2662    -0.7075     0.0151 H       
  31 H31           -0.0888     5.1862     0.0359 H       
  32 H32           -2.1976     3.9615     0.0335 H       
  33 H33            3.1928     3.6481    -0.5175 H       
  34 H34            2.2656     5.1673    -0.4957 H       
  35 H35            2.1340     1.5579    -0.0092 H       
  36 H36           -4.5605     0.8212    -1.6137 H       
  37 H37           -6.7426     1.9548    -1.5893 H       
  38 H38           -5.4662     4.3729     1.6914 H       
  39 H39           -3.2816     3.2437     1.6846 H       
  40 H40            4.2317     2.8438     3.9232 H       
  41 H41            5.0759     4.3216     3.3976 H       
  42 H42            2.0825     6.3662     3.9735 H       
  43 H43            3.7760     6.4521     3.4281 H       
  44 H44            0.9913    -2.2648    -0.0157 H       
  45 H45            0.2380    -3.7665    -0.0197 H       
@<TRIPOS>BOND
   1    1    6 ar
   2    1   13 ar
   3    1    2 ar
   4    2    3 ar
   5    2    9 ar
   6    3   10 1
   7    3    4 ar
   8    4    5 ar
   9    4   30 1
  10    5   11 1
  11    5    6 ar
  12    7   12 1
  13    7    8 ar
  14    7   13 ar
  15    8    9 ar
  16    8   31 1
  17    9   32 1
  18   10   15 ar
  19   10   19 ar
  20   11   28 am
  21   11   29 2
  22   12   14 1
  23   12   33 1
  24   12   34 1
  25   13   35 1
  26   14   21 am
  27   14   25 am
  28   15   16 ar
  29   15   36 1
  30   16   17 ar
  31   16   37 1
  32   17   20 1
  33   17   18 ar
  34   18   19 ar
  35   18   38 1
  36   19   39 1
  37   21   22 1
  38   21   26 2
  39   22   23 1
  40   22   40 1
  41   22   41 1
  42   23   24 1
  43   24   25 1
  44   24   42 1
  45   24   43 1
  46   25   27 2
  47   28   44 1
  48   28   45 1

#	End of record

