#	Name: ASD03930012
#	Creating user name:	WinNT
#	Creation time:	15. 06. 2019 20:47

#	Modifying user name:	WinNT
#	Modification time:	15. 06. 2019 20:47

#	Program:	/corina/corina34_cracker 3.40 0067  02.08.2006

@<TRIPOS>MOLECULE
ASD03930012
  30   32    0    0    0
SMALL
NO_CHARGES


@<TRIPOS>ATOM
   1 C1            -0.0164     1.3553     0.0095 C.ar    
   2 C2             0.0021    -0.0041     0.0020 C.ar    
   3 C3             1.2066    -0.6967     0.0010 C.ar    
   4 C4             2.4117    -0.0458     0.0059 C.ar    
   5 C5             2.4306     1.3560    -0.0184 C.ar    
   6 C6             1.1974     2.0643     0.0017 C.ar    
   7 C7             3.6458    -0.9054     0.0608 C.3     
   8 N8             4.7702    -0.2727    -0.6397 N.am    
   9 S9             5.1703     1.2716    -0.1488 S.o2    
  10 C10            3.6160     2.1124    -0.0821 C.ar    
  11 C11            3.5817     3.4688    -0.0893 C.ar    
  12 C12            2.3692     4.1548    -0.0393 C.ar    
  13 C13            1.1956     3.4692     0.0069 C.ar    
  14 O14            5.6434     1.1709     1.1874 O.2     
  15 O15            5.9144     1.8616    -1.2058 O.2     
  16 C16            5.5001    -0.9582    -1.7090 C.3     
  17 C17           -0.1106     4.2187     0.0644 C.3     
  18 H18           -0.9566     1.8866     0.0169 H       
  19 H19           -0.9291    -0.5512    -0.0028 H       
  20 H20            1.1923    -1.7766    -0.0034 H       
  21 H21            3.9210    -1.0681     1.1029 H       
  22 H22            3.4314    -1.8674    -0.4047 H       
  23 H23            4.5066     4.0246    -0.1340 H       
  24 H24            2.3619     5.2347    -0.0373 H       
  25 H25            5.0728    -1.9490    -1.8633 H       
  26 H26            5.4216    -0.3811    -2.6304 H       
  27 H27            6.5491    -1.0546    -1.4290 H       
  28 H28           -0.4683     4.4035    -0.9485 H       
  29 H29           -0.8464     3.6253     0.6070 H       
  30 H30            0.0383     5.1695     0.5763 H       
@<TRIPOS>BOND
   1    1    2 ar
   2    1    6 ar
   3    1   18 1
   4    2    3 ar
   5    2   19 1
   6    3    4 ar
   7    3   20 1
   8    4    5 ar
   9    4    7 1
  10    5    6 ar
  11    5   10 ar
  12    6   13 ar
  13    7    8 1
  14    7   21 1
  15    7   22 1
  16    8    9 am
  17    8   16 1
  18    9   10 1
  19    9   14 2
  20    9   15 2
  21   10   11 ar
  22   11   12 ar
  23   11   23 1
  24   12   13 ar
  25   12   24 1
  26   13   17 1
  27   16   25 1
  28   16   26 1
  29   16   27 1
  30   17   28 1
  31   17   29 1
  32   17   30 1

#	End of record

