#	Name: ASD03091946
#	Creating user name:	WinNT
#	Creation time:	15. 06. 2019 20:31

#	Modifying user name:	WinNT
#	Modification time:	15. 06. 2019 20:31

#	Program:	/corina/corina34_cracker 3.40 0067  02.08.2006

@<TRIPOS>MOLECULE
ASD03091946
  32   33    0    0    0
SMALL
NO_CHARGES


@<TRIPOS>ATOM
   1 O1             0.0599     1.3558     0.0011 O.3     
   2 C2             0.0606    -0.0045    -0.0050 C.ar    
   3 C3             0.8642    -0.7017     0.8860 C.ar    
   4 Cl4            1.8685     0.1621     2.0080 Cl      
   5 C5             0.8648    -2.0839     0.8804 C.ar    
   6 C6             0.0616    -2.7746    -0.0169 C.ar    
   7 N7             0.0617    -4.1759    -0.0224 N.am    
   8 C8             0.1861    -4.8544     1.1354 C.2     
   9 O9             0.3811    -4.2534     2.1743 O.2     
  10 N10            0.0945    -6.1990     1.1417 N.am    
  11 C11            0.3192    -6.9101     2.3258 C.ar    
  12 C12            0.9466    -8.1481     2.2855 C.ar    
  13 C13            1.1669    -8.8475     3.4562 C.ar    
  14 C14            0.7630    -8.3163     4.6671 C.ar    
  15 C15            0.1374    -7.0836     4.7105 C.ar    
  16 C16           -0.0798    -6.3764     3.5445 C.ar    
  17 C17           -0.3016    -6.5085     6.0325 C.3     
  18 F18            0.0297    -7.3974     7.0608 F       
  19 F19            0.3441    -5.2860     6.2467 F       
  20 F20           -1.6861    -6.3082     6.0172 F       
  21 C21           -0.7419    -2.0768    -0.9084 C.ar    
  22 C22           -0.7466    -0.6947    -0.8982 C.ar    
  23 Cl23          -1.7571     0.1780    -2.0078 Cl      
  24 H24           -0.5946     1.7461     0.5963 H       
  25 H25            1.4902    -2.6265     1.5739 H       
  26 H26           -0.0279    -4.6576    -0.8596 H       
  27 H27           -0.1272    -6.6739     0.3255 H       
  28 H28            1.2616    -8.5639     1.3399 H       
  29 H29            1.6548    -9.8105     3.4255 H       
  30 H30            0.9361    -8.8652     5.5809 H       
  31 H31           -0.5640    -5.4117     3.5795 H       
  32 H32           -1.3665    -2.6139    -1.6068 H       
@<TRIPOS>BOND
   1    1    2 1
   2    1   24 1
   3    2   22 ar
   4    2    3 ar
   5    3    4 1
   6    3    5 ar
   7    5    6 ar
   8    5   25 1
   9    6    7 1
  10    6   21 ar
  11    7    8 am
  12    7   26 1
  13    8    9 2
  14    8   10 am
  15   10   11 1
  16   10   27 1
  17   11   16 ar
  18   11   12 ar
  19   12   13 ar
  20   12   28 1
  21   13   14 ar
  22   13   29 1
  23   14   15 ar
  24   14   30 1
  25   15   16 ar
  26   15   17 1
  27   16   31 1
  28   17   18 1
  29   17   19 1
  30   17   20 1
  31   21   22 ar
  32   21   32 1
  33   22   23 1

#	End of record

