#	Name: ASD08150112
#	Creating user name:	WinNT
#	Creation time:	15. 06. 2019 21:15

#	Modifying user name:	WinNT
#	Modification time:	15. 06. 2019 21:15

#	Program:	/corina/corina34_cracker 3.40 0067  02.08.2006

@<TRIPOS>MOLECULE
ASD08150112
  51   54    0    0    0
SMALL
NO_CHARGES


@<TRIPOS>ATOM
   1 O1            -0.7313     1.1012    -1.8815 O.3     
   2 C2            -0.5618    -0.1707    -1.5037 C.2     
   3 N3             0.7202    -0.5593    -1.4682 N.am    
   4 C4             1.5715     0.5712    -1.8691 C.3     
   5 C5             0.5670     1.7053    -2.1506 C.3     
   6 O6            -1.4857    -0.9064    -1.2185 O.2     
   7 C7             2.9150    -3.2752    -0.6754 C.ar    
   8 N8             2.0855    -4.2744    -0.4188 N.ar    
   9 C9             0.7659    -4.1018    -0.4944 C.ar    
  10 C10            0.2661    -2.8493    -0.8489 C.ar    
  11 C11            1.1720    -1.8251    -1.1107 C.ar    
  12 N12            2.4748    -2.0728    -1.0148 N.ar    
  13 C13           -1.8256    -7.2578     0.3159 C.ar    
  14 N14           -0.8197    -7.4501    -0.5259 N.ar    
  15 C15            0.0237    -6.4736    -0.8086 C.ar    
  16 C16           -0.1569    -5.2253    -0.2061 C.ar    
  17 C17           -1.2299    -5.0636     0.6757 C.ar    
  18 N18           -2.0297    -6.0887     0.9070 N.ar    
  19 N19            4.2789    -3.4911    -0.5809 N.3     
  20 C20            4.9600    -2.3177    -0.0146 C.3     
  21 C21            6.4539    -2.6209     0.1275 C.3     
  22 O22            6.9836    -2.9909    -1.1484 O.3     
  23 C23            6.3436    -4.1306    -1.7289 C.3     
  24 C24            4.8485    -3.8427    -1.8898 C.3     
  25 N25           -2.6892    -8.3040     0.5805 N.pl3   
  26 C26            1.1644    -6.7023    -1.7665 C.3     
  27 F27            0.9801    -7.9207    -2.4288 F       
  28 F28            1.2023    -5.6635    -2.7029 F       
  29 F29            2.3697    -6.7348    -1.0570 F       
  30 C30            2.5177     0.9613    -0.7318 C.3     
  31 C31            4.3703    -1.9991     1.3608 C.3     
  32 H32            2.1344     0.3261    -2.7698 H       
  33 H33            0.6320     2.0239    -3.1909 H       
  34 H34            0.7431     2.5467    -1.4805 H       
  35 H35           -0.7980    -2.6779    -0.9190 H       
  36 H36           -1.4019    -4.1141     1.1609 H       
  37 H37            4.8234    -1.4628    -0.6768 H       
  38 H38            6.9720    -1.7344     0.4934 H       
  39 H39            6.5935    -3.4413     0.8314 H       
  40 H40            6.7818    -4.3360    -2.7055 H       
  41 H41            6.4799    -4.9949    -1.0790 H       
  42 H42            4.3470    -4.7289    -2.2787 H       
  43 H43            4.7102    -3.0122    -2.5819 H       
  44 H44           -2.5547    -9.1640     0.1524 H       
  45 H45           -3.4297    -8.1782     1.1942 H       
  46 H46            3.1531     0.1121    -0.4804 H       
  47 H47            3.1392     1.7992    -1.0475 H       
  48 H48            1.9348     1.2504     0.1427 H       
  49 H49            4.5726    -2.8248     2.0430 H       
  50 H50            4.8250    -1.0876     1.7487 H       
  51 H51            3.2933    -1.8579     1.2705 H       
@<TRIPOS>BOND
   1    1    2 1
   2    1    5 1
   3    2    3 am
   4    2    6 2
   5    3    4 1
   6    3   11 1
   7    4    5 1
   8    4   30 1
   9    4   32 1
  10    5   33 1
  11    5   34 1
  12    7    8 ar
  13    7   12 ar
  14    7   19 1
  15    8    9 ar
  16    9   10 ar
  17    9   16 1
  18   10   11 ar
  19   10   35 1
  20   11   12 ar
  21   13   14 ar
  22   13   18 ar
  23   13   25 1
  24   14   15 ar
  25   15   16 ar
  26   15   26 1
  27   16   17 ar
  28   17   18 ar
  29   17   36 1
  30   19   20 1
  31   19   24 1
  32   20   21 1
  33   20   31 1
  34   20   37 1
  35   21   22 1
  36   21   38 1
  37   21   39 1
  38   22   23 1
  39   23   24 1
  40   23   40 1
  41   23   41 1
  42   24   42 1
  43   24   43 1
  44   25   44 1
  45   25   45 1
  46   26   27 1
  47   26   28 1
  48   26   29 1
  49   30   46 1
  50   30   47 1
  51   30   48 1
  52   31   49 1
  53   31   50 1
  54   31   51 1

#	End of record

