#	Name: ASD02030294
#	Creating user name:	WinNT
#	Creation time:	15. 06. 2019 20:15

#	Modifying user name:	WinNT
#	Modification time:	15. 06. 2019 20:15

#	Program:	/corina/corina34_cracker 3.40 0067  02.08.2006

@<TRIPOS>MOLECULE
ASD02030294
  55   59    0    0    0
SMALL
NO_CHARGES


@<TRIPOS>ATOM
   1 N1            -0.0337     1.2448     0.3460 N.am    
   2 C2            -0.2588    -0.2073     0.3686 C.3     
   3 C3            -1.3003    -0.5250     1.4487 C.3     
   4 N4            -2.4534     0.3677     1.2663 N.am    
   5 C5            -2.2282     1.8199     1.2436 C.3     
   6 C6            -1.1874     2.1377     0.1691 C.3     
   7 C7             1.2080     1.7488     0.4904 C.2     
   8 C8             2.3394     0.8492     0.8002 C.2     
   9 N9             3.5684     1.2218     1.0861 N.2     
  10 N10            2.2925    -0.4950     0.8451 N.2     
  11 C11            3.4930    -0.9160     1.1519 C.2     
  12 N12            4.2803     0.1692     1.2997 N.pl3   
  13 C13            5.6422     0.1545     1.6296 C.ar    
  14 O14            1.3974     2.9431     0.3660 O.2     
  15 C15           -3.6950    -0.1362     1.1218 C.2     
  16 C16           -3.8930    -1.5904     1.0404 C.2     
  17 O17           -4.6518     0.6124     1.0588 O.2     
  18 C18            6.3410     1.3476     1.7517 C.ar    
  19 C19            7.6846     1.3297     2.0773 C.ar    
  20 C20            8.3320     0.1237     2.2808 C.ar    
  21 C21            7.6376    -1.0659     2.1592 C.ar    
  22 C22            6.2939    -1.0536     1.8407 C.ar    
  23 C23           -0.7374     3.5937     0.3050 C.3     
  24 Cl24           8.5600     2.8209     2.2304 Cl      
  25 C25           -5.0721    -2.2043     0.7625 C.2     
  26 C26           -4.7968    -3.6405     0.7868 C.ar    
  27 C27           -3.4282    -3.7613     1.0880 C.ar    
  28 O28           -2.9295    -2.5169     1.2248 O.3     
  29 C29           -5.5735    -4.7845     0.5840 C.ar    
  30 C30           -4.9986    -6.0199     0.6794 C.ar    
  31 C31           -3.6483    -6.1470     0.9763 C.ar    
  32 C32           -2.8635    -5.0306     1.1802 C.ar    
  33 F33           -1.5510    -5.1688     1.4688 F       
  34 C34           -6.3962    -1.5402     0.4852 C.3     
  35 H35           -0.6277    -0.5355    -0.6031 H       
  36 H36            0.6756    -0.7188     0.5997 H       
  37 H37           -1.6219    -1.5621     1.3531 H       
  38 H38           -0.8653    -0.3638     2.4351 H       
  39 H39           -3.1626     2.3314     1.0125 H       
  40 H40           -1.8593     2.1480     2.2154 H       
  41 H41           -1.6201     1.9766    -0.8183 H       
  42 H42            3.7974    -1.9456     1.2689 H       
  43 H43            5.8359     2.2888     1.5922 H       
  44 H44            9.3816     0.1116     2.5348 H       
  45 H45            8.1457    -2.0056     2.3179 H       
  46 H46            5.7524    -1.9833     1.7463 H       
  47 H47           -0.1981     3.7213     1.2436 H       
  48 H48           -0.0830     3.8509    -0.5279 H       
  49 H49           -1.6105     4.2462     0.2960 H       
  50 H50           -6.6245    -4.6922     0.3531 H       
  51 H51           -5.5987    -6.9041     0.5231 H       
  52 H52           -3.2074    -7.1302     1.0485 H       
  53 H53           -6.4926    -1.3547    -0.5845 H       
  54 H54           -7.2055    -2.1913     0.8155 H       
  55 H55           -6.4480    -0.5942     1.0242 H       
@<TRIPOS>BOND
   1    1    2 1
   2    1    7 am
   3    1    6 1
   4    2    3 1
   5    2   35 1
   6    2   36 1
   7    3    4 1
   8    3   37 1
   9    3   38 1
  10    4    5 1
  11    4   15 am
  12    5    6 1
  13    5   39 1
  14    5   40 1
  15    6   23 1
  16    6   41 1
  17    7    8 1
  18    7   14 2
  19    8    9 2
  20    8   10 1
  21    9   12 1
  22   10   11 2
  23   11   12 1
  24   11   42 1
  25   12   13 1
  26   13   18 ar
  27   13   22 ar
  28   15   16 1
  29   15   17 2
  30   16   25 2
  31   16   28 1
  32   18   19 ar
  33   18   43 1
  34   19   20 ar
  35   19   24 1
  36   20   21 ar
  37   20   44 1
  38   21   22 ar
  39   21   45 1
  40   22   46 1
  41   23   47 1
  42   23   48 1
  43   23   49 1
  44   25   26 1
  45   25   34 1
  46   26   27 ar
  47   26   29 ar
  48   27   28 1
  49   27   32 ar
  50   29   30 ar
  51   29   50 1
  52   30   31 ar
  53   30   51 1
  54   31   32 ar
  55   31   52 1
  56   32   33 1
  57   34   53 1
  58   34   54 1
  59   34   55 1

#	End of record

