#	Name: ASD01148184
#	Creating user name:	WinNT
#	Creation time:	15. 06. 2019 19:02

#	Modifying user name:	WinNT
#	Modification time:	15. 06. 2019 19:02

#	Program:	/corina/corina34_cracker 3.40 0067  02.08.2006

@<TRIPOS>MOLECULE
ASD01148184
  52   55    0    0    0
SMALL
NO_CHARGES


@<TRIPOS>ATOM
   1 C1            -0.0167     1.3777     0.0096 C.ar    
   2 C2             0.0021    -0.0041     0.0020 C.ar    
   3 C3             1.2098    -0.6793    -0.0131 C.ar    
   4 C4             2.3977     0.0294    -0.0206 C.ar    
   5 C5             2.3777     1.4116    -0.0130 C.ar    
   6 C6             1.1710     2.0855     0.0021 C.ar    
   7 C7             3.6718     2.1839    -0.0212 C.3     
   8 O8             4.6969     1.4658    -0.7375 O.3     
   9 C9             3.5417     3.4737    -0.8661 C.3     
  10 C10            4.0452     3.0289    -2.2262 C.2     
  11 N11            4.6710     1.9095    -2.0797 N.2     
  12 C12            3.8521     3.7518    -3.4986 C.ar    
  13 C13            4.3707     3.2278    -4.6855 C.ar    
  14 C14            3.1459     4.9572    -3.5171 C.ar    
  15 C15            2.9655     5.6310    -4.7039 C.ar    
  16 C16            3.4886     5.1097    -5.8896 C.ar    
  17 C17            4.1902     3.9019    -5.8721 C.ar    
  18 C18            3.2944     5.8330    -7.1638 C.2     
  19 O19            2.6796     6.8815    -7.1799 O.2     
  20 N20            3.7991     5.3301    -8.3078 N.am    
  21 C21            4.1233     2.5056     1.4048 C.3     
  22 F22            4.2988     1.3150     2.1182 F       
  23 F23            5.3328     3.2074     1.3639 F       
  24 F24            3.1510     3.2886     2.0363 F       
  25 Cl25           1.2342    -2.4151    -0.0221 Cl      
  26 N26            3.6150     6.0157    -9.5157 N.pl3   
  27 C27            4.3951     7.2230    -9.7988 C.3     
  28 C28            2.6879     5.5482   -10.4499 C.ar    
  29 C29            2.5042     6.2268   -11.6479 C.ar    
  30 C30            1.5870     5.7615   -12.5696 C.ar    
  31 C31            0.8519     4.6215   -12.3010 C.ar    
  32 C32            1.0319     3.9438   -11.1091 C.ar    
  33 C33            1.9516     4.4003   -10.1855 C.ar    
  34 H34           -0.9593     1.9048     0.0169 H       
  35 H35           -0.9257    -0.5569     0.0082 H       
  36 H36            3.3407    -0.4970    -0.0321 H       
  37 H37            1.1559     3.1654     0.0080 H       
  38 H38            2.5018     3.7948    -0.9245 H       
  39 H39            4.1705     4.2666    -0.4611 H       
  40 H40            4.9134     2.2942    -4.6719 H       
  41 H41            2.7411     5.3602    -2.6005 H       
  42 H42            2.4193     6.5626    -4.7183 H       
  43 H43            4.5945     3.4989    -6.7889 H       
  44 H44            4.2897     4.4934    -8.2950 H       
  45 H45            5.3193     6.9476   -10.3067 H       
  46 H46            3.8145     7.8893   -10.4369 H       
  47 H47            4.6317     7.7304    -8.8636 H       
  48 H48            3.0777     7.1174   -11.8582 H       
  49 H49            1.4434     6.2889   -13.5011 H       
  50 H50            0.1352     4.2598   -13.0235 H       
  51 H51            0.4560     3.0539   -10.9022 H       
  52 H52            2.0917     3.8706    -9.2548 H       
@<TRIPOS>BOND
   1    1    2 ar
   2    1    6 ar
   3    1   34 1
   4    2    3 ar
   5    2   35 1
   6    3    4 ar
   7    3   25 1
   8    4    5 ar
   9    4   36 1
  10    5    6 ar
  11    5    7 1
  12    6   37 1
  13    7    8 1
  14    7    9 1
  15    7   21 1
  16    8   11 1
  17    9   10 1
  18    9   38 1
  19    9   39 1
  20   10   11 2
  21   10   12 1
  22   12   13 ar
  23   12   14 ar
  24   13   17 ar
  25   13   40 1
  26   14   15 ar
  27   14   41 1
  28   15   16 ar
  29   15   42 1
  30   16   17 ar
  31   16   18 1
  32   17   43 1
  33   18   19 2
  34   18   20 am
  35   20   26 1
  36   20   44 1
  37   21   22 1
  38   21   23 1
  39   21   24 1
  40   26   27 1
  41   26   28 1
  42   27   45 1
  43   27   46 1
  44   27   47 1
  45   28   29 ar
  46   28   33 ar
  47   29   30 ar
  48   29   48 1
  49   30   31 ar
  50   30   49 1
  51   31   32 ar
  52   31   50 1
  53   32   33 ar
  54   32   51 1
  55   33   52 1

#	End of record

