#	Name: ASD01883623
#	Creating user name:	WinNT
#	Creation time:	15. 06. 2019 19:46

#	Modifying user name:	WinNT
#	Modification time:	15. 06. 2019 19:46

#	Program:	/corina/corina34_cracker 3.40 0067  02.08.2006

@<TRIPOS>MOLECULE
ASD01883623
  48   51    0    0    0
SMALL
NO_CHARGES


@<TRIPOS>ATOM
   1 C1            -0.4070     0.7384    -1.1126 C.2     
   2 C2             0.0021    -0.0041     0.0020 C.2     
   3 C3            -0.8269    -0.0436     1.1386 C.2     
   4 C4            -1.9990     0.6181     1.1664 C.2     
   5 N5            -2.4375     1.3532     0.1042 N.pl3   
   6 C6            -1.6865     1.4486    -1.0386 C.2     
   7 C7            -3.5720     2.0989    -0.1027 C.2     
   8 C8            -3.4873     2.6148    -1.3454 C.2     
   9 N9            -2.3371     2.2111    -1.8983 N.2     
  10 C10           -4.7001     2.3019     0.8756 C.3     
  11 C11           -5.8074     1.2838     0.5957 C.3     
  12 N12            1.2030    -0.6889    -0.0141 N.pl3   
  13 C13            1.2305    -2.1543     0.0880 C.3     
  14 C14            2.1618    -2.5511     1.2378 C.3     
  15 C15            3.5346    -1.9102     1.0215 C.3     
  16 C16            3.3932    -0.3864     1.0183 C.3     
  17 C17            2.4756     0.0345    -0.1397 C.3     
  18 C18            4.4635    -2.3260     2.1329 C.ar    
  19 C19            5.8214    -2.4304     1.8961 C.ar    
  20 C20            6.6735    -2.8118     2.9156 C.ar    
  21 C21            6.1677    -3.0883     4.1721 C.ar    
  22 C22            4.8099    -2.9829     4.4091 C.ar    
  23 C23            3.9584    -2.5974     3.3907 C.ar    
  24 O24            4.0691    -2.3414    -0.2317 O.3     
  25 C25            0.4055     0.8066    -2.2898 C.1     
  26 N26            1.0500     0.8606    -3.2237 N.1     
  27 H27           -0.5180    -0.6142     2.0020 H       
  28 H28           -2.6099     0.5652     2.0554 H       
  29 H29           -4.2232     3.2506    -1.8152 H       
  30 H30           -4.3292     2.1653     1.8914 H       
  31 H31           -5.0982     3.3108     0.7668 H       
  32 H32           -6.6233     1.4306     1.3033 H       
  33 H33           -6.1783     1.4204    -0.4201 H       
  34 H34           -5.4093     0.2749     0.7045 H       
  35 H35            0.2253    -2.5257     0.2872 H       
  36 H36            1.6008    -2.5787    -0.8452 H       
  37 H37            1.7426    -2.2033     2.1820 H       
  38 H38            2.2666    -3.6358     1.2634 H       
  39 H39            2.9625    -0.0590     1.9645 H       
  40 H40            4.3745     0.0697     0.8875 H       
  41 H41            2.9498    -0.2117    -1.0897 H       
  42 H42            2.2912     1.1076    -0.0883 H       
  43 H43            6.2165    -2.2144     0.9145 H       
  44 H44            7.7343    -2.8941     2.7304 H       
  45 H45            6.8333    -3.3869     4.9684 H       
  46 H46            4.4147    -3.1993     5.3907 H       
  47 H47            2.8975    -2.5150     3.5759 H       
  48 H48            4.9399    -1.9736    -0.4353 H       
@<TRIPOS>BOND
   1    1    2 2
   2    1   25 1
   3    1    6 1
   4    2    3 1
   5    2   12 1
   6    3    4 2
   7    3   27 1
   8    4    5 1
   9    4   28 1
  10    5    6 1
  11    5    7 1
  12    6    9 2
  13    7    8 2
  14    7   10 1
  15    8    9 1
  16    8   29 1
  17   10   11 1
  18   10   30 1
  19   10   31 1
  20   11   32 1
  21   11   33 1
  22   11   34 1
  23   12   13 1
  24   12   17 1
  25   13   14 1
  26   13   35 1
  27   13   36 1
  28   14   15 1
  29   14   37 1
  30   14   38 1
  31   15   16 1
  32   15   18 1
  33   15   24 1
  34   16   17 1
  35   16   39 1
  36   16   40 1
  37   17   41 1
  38   17   42 1
  39   18   19 ar
  40   18   23 ar
  41   19   20 ar
  42   19   43 1
  43   20   21 ar
  44   20   44 1
  45   21   22 ar
  46   21   45 1
  47   22   23 ar
  48   22   46 1
  49   23   47 1
  50   24   48 1
  51   25   26 3

#	End of record

