#	Name: ASD05250003
#	Creating user name:	WinNT
#	Creation time:	15. 06. 2019 20:57

#	Modifying user name:	WinNT
#	Modification time:	15. 06. 2019 20:57

#	Program:	/corina/corina34_cracker 3.40 0067  02.08.2006

@<TRIPOS>MOLECULE
ASD05250003
  58   63    0    0    0
SMALL
NO_CHARGES


@<TRIPOS>ATOM
   1 C1             0.1301     1.1307    -1.1279 C.ar    
   2 C2             0.0739    -0.1262    -0.5480 C.ar    
   3 C3             1.2173    -0.6902     0.0456 C.ar    
   4 C4             2.3962    -0.0173     0.0630 C.ar    
   5 C5             2.4857     1.2609    -0.5175 C.ar    
   6 C6             3.6946     1.9767    -0.5107 C.ar    
   7 C7             3.7507     3.2120    -1.0799 C.ar    
   8 C8             2.6249     3.7817    -1.6720 C.ar    
   9 C9             1.4366     3.1191    -1.6980 C.ar    
  10 C10            1.3398     1.8404    -1.1198 C.ar    
  11 C11           -1.1969    -0.8797    -0.5528 C.2     
  12 O12           -2.1882    -0.3963    -1.0644 O.2     
  13 N13           -1.2572    -2.1029     0.0099 N.am    
  14 C14           -2.4825    -2.7675     0.1072 C.ar    
  15 C15           -2.5376    -4.1612    -0.0129 C.ar    
  16 C16           -3.7635    -4.8139     0.0860 C.ar    
  17 C17           -4.9167    -4.0858     0.3017 C.ar    
  18 C18           -4.8598    -2.7085     0.4201 C.ar    
  19 C19           -3.6482    -2.0497     0.3290 C.ar    
  20 S20            2.4802    -5.8067    -0.9284 S.3     
  21 C21            0.7827    -5.4089    -0.6211 C.2     
  22 N22            0.1341    -6.6021    -0.5219 N.pl3   
  23 C23            0.9226    -7.7195    -0.6777 C.2     
  24 C24            2.2141    -7.5589    -0.9048 C.2     
  25 N25           -0.0683    -4.4247    -0.4564 N.2     
  26 C26           -1.2961    -4.9386    -0.2450 C.2     
  27 C27           -1.1982    -6.2900    -0.2807 C.2     
  28 C28            0.3241    -9.0999    -0.5903 C.3     
  29 N29            0.2626    -9.5187     0.8164 N.3     
  30 C30           -0.5286   -10.7539     0.9658 C.3     
  31 C31            0.3772   -11.7966     1.6540 C.3     
  32 C32            1.4396   -10.9199     2.3677 C.3     
  33 C33            1.6174    -9.7592     1.3573 C.3     
  34 O34           -0.3661   -12.5631     2.6039 O.3     
  35 H35           -0.7492     1.5586    -1.5864 H       
  36 H36            1.1566    -1.6710     0.4937 H       
  37 H37            3.2656    -0.4634     0.5230 H       
  38 H38            4.5755     1.5488    -0.0555 H       
  39 H39            4.6818     3.7592    -1.0723 H       
  40 H40            2.6966     4.7635    -2.1162 H       
  41 H41            0.5722     3.5728    -2.1598 H       
  42 H42           -0.4500    -2.5218     0.3474 H       
  43 H43           -3.8124    -5.8889    -0.0062 H       
  44 H44           -5.8669    -4.5933     0.3779 H       
  45 H45           -5.7661    -2.1458     0.5888 H       
  46 H46           -3.6097    -0.9749     0.4267 H       
  47 H47            2.9532    -8.3335    -1.0472 H       
  48 H48           -2.0063    -6.9939    -0.1468 H       
  49 H49           -0.6818    -9.0870    -1.0099 H       
  50 H50            0.9428    -9.8003    -1.1512 H       
  51 H51           -1.4059   -10.5599     1.5829 H       
  52 H52           -0.8354   -11.1186    -0.0145 H       
  53 H53            0.8467   -12.4465     0.9156 H       
  54 H54            1.0648   -10.5521     3.3229 H       
  55 H55            2.3724   -11.4678     2.5009 H       
  56 H56            2.2984   -10.0524     0.5584 H       
  57 H57            1.9872    -8.8680     1.8644 H       
  58 H58            0.1573   -13.2331     3.0645 H       
@<TRIPOS>BOND
   1    1    2 ar
   2    1   10 ar
   3    1   35 1
   4    2    3 ar
   5    2   11 1
   6    3    4 ar
   7    3   36 1
   8    4    5 ar
   9    4   37 1
  10    5    6 ar
  11    5   10 ar
  12    6    7 ar
  13    6   38 1
  14    7    8 ar
  15    7   39 1
  16    8    9 ar
  17    8   40 1
  18    9   10 ar
  19    9   41 1
  20   11   12 2
  21   11   13 am
  22   13   14 1
  23   13   42 1
  24   14   15 ar
  25   14   19 ar
  26   15   16 ar
  27   15   26 1
  28   16   17 ar
  29   16   43 1
  30   17   18 ar
  31   17   44 1
  32   18   19 ar
  33   18   45 1
  34   19   46 1
  35   20   21 1
  36   20   24 1
  37   21   22 1
  38   21   25 2
  39   22   23 1
  40   22   27 1
  41   23   24 2
  42   23   28 1
  43   24   47 1
  44   25   26 1
  45   26   27 2
  46   27   48 1
  47   28   29 1
  48   28   49 1
  49   28   50 1
  50   29   30 1
  51   29   33 1
  52   30   31 1
  53   30   51 1
  54   30   52 1
  55   31   32 1
  56   31   34 1
  57   31   53 1
  58   32   33 1
  59   32   54 1
  60   32   55 1
  61   33   56 1
  62   33   57 1
  63   34   58 1

#	End of record

