#	Name: ASD01917825
#	Creating user name:	WinNT
#	Creation time:	15. 06. 2019 20:10

#	Modifying user name:	WinNT
#	Modification time:	15. 06. 2019 20:10

#	Program:	/corina/corina34_cracker 3.40 0067  02.08.2006

@<TRIPOS>MOLECULE
ASD01917825
  50   54    0    0    0
SMALL
NO_CHARGES


@<TRIPOS>ATOM
   1 C1             0.5097     2.8801    -0.3353 C.2     
   2 C2             0.9872     1.6365    -0.1415 C.2     
   3 C3             0.0963     0.4511     0.1970 C.3     
   4 C4            -1.2416     0.9663     0.7328 C.3     
   5 N5            -1.7352     2.0335    -0.1506 N.am    
   6 C6            -0.9460     3.2748    -0.2355 C.3     
   7 C7            -2.8719     1.8809    -0.8585 C.2     
   8 O8            -3.4602     0.8205    -0.8398 O.2     
   9 S9             1.8549     3.9477    -0.7111 S.3     
  10 C10            2.9432     2.6370    -0.5718 C.2     
  11 N11            2.3039     1.5598    -0.2782 N.2     
  12 C12            4.4349     2.7297    -0.7652 C.3     
  13 O13            4.7528     2.4927    -2.1381 O.3     
  14 C14            6.0661     2.5403    -2.4844 C.ar    
  15 C15            6.4462     2.3197    -3.8002 C.ar    
  16 C16            7.7818     2.3687    -4.1497 C.ar    
  17 C17            8.7395     2.6373    -3.1893 C.ar    
  18 C18            8.3633     2.8570    -1.8770 C.ar    
  19 C19            7.0285     2.8153    -1.5237 C.ar    
  20 C20           -3.4118     3.0279    -1.6733 C.3     
  21 C21           -4.1510     4.0862    -0.8958 C.ar    
  22 C22           -2.5924     3.4827    -2.8827 C.3     
  23 C23           -3.9021     2.7193    -3.0894 C.3     
  24 C24           -5.3407     3.7755    -0.2641 C.ar    
  25 C25           -6.0187     4.7463     0.4491 C.ar    
  26 C26           -5.5068     6.0278     0.5310 C.ar    
  27 C27           -4.3167     6.3383    -0.0999 C.ar    
  28 C28           -3.6364     5.3664    -0.8094 C.ar    
  29 H29           -0.0752    -0.1437    -0.7002 H       
  30 H30            0.5804    -0.1635     0.9559 H       
  31 H31           -1.9634     0.1499     0.7564 H       
  32 H32           -1.1033     1.3612     1.7393 H       
  33 H33           -1.1072     3.8780     0.6580 H       
  34 H34           -1.2370     3.8389    -1.1216 H       
  35 H35            4.7772     3.7243    -0.4794 H       
  36 H36            4.9290     1.9829    -0.1437 H       
  37 H37            5.6985     2.1095    -4.5507 H       
  38 H38            8.0782     2.1966    -5.1739 H       
  39 H39            9.7831     2.6751    -3.4645 H       
  40 H40            9.1133     3.0659    -1.1285 H       
  41 H41            6.7351     2.9871    -0.4986 H       
  42 H42           -2.5882     4.5474    -3.1161 H       
  43 H43           -1.6627     2.9524    -3.0889 H       
  44 H44           -3.8341     1.6867    -3.4317 H       
  45 H45           -4.7596     3.2817    -3.4589 H       
  46 H46           -5.7406     2.7743    -0.3281 H       
  47 H47           -6.9486     4.5037     0.9419 H       
  48 H48           -6.0369     6.7865     1.0876 H       
  49 H49           -3.9169     7.3396    -0.0361 H       
  50 H50           -2.7066     5.6089    -1.3023 H       
@<TRIPOS>BOND
   1    1    2 2
   2    1    9 1
   3    1    6 1
   4    2    3 1
   5    2   11 1
   6    3    4 1
   7    3   29 1
   8    3   30 1
   9    4    5 1
  10    4   31 1
  11    4   32 1
  12    5    6 1
  13    5    7 am
  14    6   33 1
  15    6   34 1
  16    7    8 2
  17    7   20 1
  18    9   10 1
  19   10   11 2
  20   10   12 1
  21   12   13 1
  22   12   35 1
  23   12   36 1
  24   13   14 1
  25   14   15 ar
  26   14   19 ar
  27   15   16 ar
  28   15   37 1
  29   16   17 ar
  30   16   38 1
  31   17   18 ar
  32   17   39 1
  33   18   19 ar
  34   18   40 1
  35   19   41 1
  36   20   22 1
  37   20   21 1
  38   20   23 1
  39   21   24 ar
  40   21   28 ar
  41   22   23 1
  42   22   42 1
  43   22   43 1
  44   23   44 1
  45   23   45 1
  46   24   25 ar
  47   24   46 1
  48   25   26 ar
  49   25   47 1
  50   26   27 ar
  51   26   48 1
  52   27   28 ar
  53   27   49 1
  54   28   50 1

#	End of record

