#	Name: ASD01901144
#	Creating user name:	WinNT
#	Creation time:	15. 06. 2019 19:53

#	Modifying user name:	WinNT
#	Modification time:	15. 06. 2019 19:53

#	Program:	/corina/corina34_cracker 3.40 0067  02.08.2006

@<TRIPOS>MOLECULE
ASD01901144
  47   49    0    0    0
SMALL
NO_CHARGES


@<TRIPOS>ATOM
   1 C1            -0.0158     1.3123     0.0093 C.ar    
   2 N2             0.0021    -0.0041     0.0020 N.ar    
   3 C3             1.1316    -0.6859    -0.0124 C.ar    
   4 C4             2.3557    -0.0416    -0.0206 C.ar    
   5 C5             2.3935     1.3414    -0.0135 C.ar    
   6 C6             1.1781     2.0387     0.0018 C.ar    
   7 C7             1.1598     3.4705     0.0091 C.1     
   8 C8             1.1447     4.6444     0.0152 C.1     
   9 C9             1.1264     6.0763     0.0225 C.ar    
  10 C10            2.3266     6.7923     0.0149 C.ar    
  11 C11            2.3053     8.1714     0.0221 C.ar    
  12 C12            1.0921     8.8498     0.0374 C.ar    
  13 C13           -0.1056     8.1409     0.0450 C.ar    
  14 C14           -0.0923     6.7615     0.0316 C.ar    
  15 N15            1.0749    10.2517     0.0456 N.am    
  16 C16            1.0559    10.9199    -1.1197 C.2     
  17 N17            1.2769    12.2434    -1.1751 N.am    
  18 C18            1.6700    12.9914     0.0205 C.3     
  19 C19            0.9575    12.4107     1.2442 C.3     
  20 C20            1.0722    10.9075     1.2205 C.2     
  21 O21            0.8337    10.3121    -2.1484 O.2     
  22 Cl22           3.7958     9.0613     0.0127 Cl      
  23 O23            1.1657    10.2904     2.2598 O.2     
  24 F24           -1.2824     8.8043     0.0603 F       
  25 C25            1.1230    12.9485    -2.4500 C.3     
  26 C26            3.1839    12.8808     0.2119 C.3     
  27 C27            1.2833    14.4626    -0.1441 C.3     
  28 C28           -0.3195    13.4386    -2.5909 C.3     
  29 H29           -0.9608     1.8351     0.0166 H       
  30 H30            1.1000    -1.7654    -0.0175 H       
  31 H31            3.2725    -0.6123    -0.0321 H       
  32 H32            3.3354     1.8699    -0.0193 H       
  33 H33            3.2698     6.2663     0.0038 H       
  34 H34           -1.0219     6.2117     0.0330 H       
  35 H35            1.4189    12.7986     2.1523 H       
  36 H36           -0.0951    12.6926     1.2205 H       
  37 H37            1.8010    13.8016    -2.4775 H       
  38 H38            1.3583    12.2708    -3.2707 H       
  39 H39            3.4596    11.8328     0.3296 H       
  40 H40            3.6915    13.2944    -0.6596 H       
  41 H41            3.4792    13.4364     1.1019 H       
  42 H42            1.5790    15.0178     0.7461 H       
  43 H43            1.7906    14.8763    -1.0156 H       
  44 H44            0.2047    14.5417    -0.2800 H       
  45 H45           -0.9974    12.5855    -2.5634 H       
  46 H46           -0.5547    14.1163    -1.7702 H       
  47 H47           -0.4339    13.9632    -3.5395 H       
@<TRIPOS>BOND
   1    1    2 ar
   2    1    6 ar
   3    1   29 1
   4    2    3 ar
   5    3    4 ar
   6    3   30 1
   7    4    5 ar
   8    4   31 1
   9    5    6 ar
  10    5   32 1
  11    6    7 1
  12    7    8 3
  13    8    9 1
  14    9   10 ar
  15    9   14 ar
  16   10   11 ar
  17   10   33 1
  18   11   12 ar
  19   11   22 1
  20   12   13 ar
  21   12   15 1
  22   13   14 ar
  23   13   24 1
  24   14   34 1
  25   15   16 am
  26   15   20 am
  27   16   17 am
  28   16   21 2
  29   17   25 1
  30   17   18 1
  31   18   19 1
  32   18   26 1
  33   18   27 1
  34   19   20 1
  35   19   35 1
  36   19   36 1
  37   20   23 2
  38   25   28 1
  39   25   37 1
  40   25   38 1
  41   26   39 1
  42   26   40 1
  43   26   41 1
  44   27   42 1
  45   27   43 1
  46   27   44 1
  47   28   45 1
  48   28   46 1
  49   28   47 1

#	End of record

