#	Name: ASD02500031
#	Creating user name:	WinNT
#	Creation time:	15. 06. 2019 20:22

#	Modifying user name:	WinNT
#	Modification time:	15. 06. 2019 20:22

#	Program:	/corina/corina34_cracker 3.40 0067  02.08.2006

@<TRIPOS>MOLECULE
ASD02500031
  63   67    0    0    0
SMALL
NO_CHARGES


@<TRIPOS>ATOM
   1 C1             0.9227     0.6361     4.9382 C.ar    
   2 C2             0.0999     1.5511     5.5690 C.ar    
   3 C3             0.2539     2.9043     5.3308 C.ar    
   4 C4             1.2312     3.3494     4.4606 C.ar    
   5 C5             2.0607     2.4373     3.8245 C.ar    
   6 C6             1.9048     1.0740     4.0652 C.ar    
   7 O7             2.7154     0.1752     3.4447 O.3     
   8 C8             2.4980    -1.2061     3.7394 C.3     
   9 N9             3.0508     2.8855     2.9426 N.3     
  10 C10            4.3926     2.6165     3.4768 C.3     
  11 C11            5.4403     2.9535     2.4105 C.3     
  12 N12            5.2171     4.3345     1.9564 N.am    
  13 C13            3.8613     4.7178     1.5344 C.3     
  14 C14            2.8758     4.3113     2.6351 C.3     
  15 C15            6.2284     5.2250     1.9272 C.2     
  16 O16            7.3169     4.9238     2.3775 O.2     
  17 C17            6.0145     6.5653     1.3490 C.ar    
  18 C18            6.6169     7.6839     1.9320 C.ar    
  19 C19            6.4155     8.9327     1.3903 C.ar    
  20 C20            5.6128     9.0828     0.2628 C.ar    
  21 C21            5.0115     7.9707    -0.3202 C.ar    
  22 C22            5.2137     6.7185     0.2134 C.ar    
  23 N23            5.4108    10.3461    -0.2819 N.am    
  24 S24            5.5240    10.5697    -1.9188 S.o2    
  25 O25            5.3814    11.9655    -2.1440 O.2     
  26 C26            7.1708    10.1556    -2.3892 C.ar    
  27 C27            8.2532    10.9144    -1.9131 C.ar    
  28 C28            9.5708    10.5659    -2.3024 C.ar    
  29 C29            9.7691     9.4679    -3.1563 C.ar    
  30 C30            8.6964     8.7552    -3.5971 C.ar    
  31 C31            7.4015     9.0954    -3.2113 C.ar    
  32 O32            4.6792     9.5957    -2.5163 O.2     
  33 C33            8.0550    12.0126    -1.0586 C.ar    
  34 C34            9.1275    12.7247    -0.6176 C.ar    
  35 C35           10.4231    12.3823    -1.0008 C.ar    
  36 C36           10.6535    11.3253    -1.8264 C.ar    
  37 H37            0.8025    -0.4199     5.1297 H       
  38 H38           -0.6653     1.2078     6.2494 H       
  39 H39           -0.3913     3.6152     5.8255 H       
  40 H40            1.3489     4.4069     4.2758 H       
  41 H41            2.6357    -1.3759     4.8073 H       
  42 H42            1.4826    -1.4827     3.4555 H       
  43 H43            3.2097    -1.8133     3.1802 H       
  44 H44            4.5622     3.2314     4.3606 H       
  45 H45            4.4727     1.5631     3.7453 H       
  46 H46            6.4391     2.8655     2.8380 H       
  47 H47            5.3380     2.2698     1.5678 H       
  48 H48            3.8162     5.7962     1.3825 H       
  49 H49            3.6073     4.2037     0.6074 H       
  50 H50            1.8558     4.4870     2.2932 H       
  51 H51            3.0666     4.9026     3.5307 H       
  52 H52            7.2394     7.5682     2.8069 H       
  53 H53            6.8803     9.7974     1.8406 H       
  54 H54            4.3890     8.0904    -1.1946 H       
  55 H55            4.7473     5.8561    -0.2395 H       
  56 H56            5.2036    11.0963     0.2969 H       
  57 H57           10.7674     9.1910    -3.4616 H       
  58 H58            8.8515     7.9118    -4.2537 H       
  59 H59            6.5678     8.5132    -3.5751 H       
  60 H60            7.0567    12.2901    -0.7538 H       
  61 H61            8.9725    13.5682     0.0389 H       
  62 H62           11.2568    12.9646    -0.6370 H       
  63 H63           11.6629    11.0715    -2.1147 H       
@<TRIPOS>BOND
   1    1    2 ar
   2    1    6 ar
   3    1   37 1
   4    2    3 ar
   5    2   38 1
   6    3    4 ar
   7    3   39 1
   8    4    5 ar
   9    4   40 1
  10    5    6 ar
  11    5    9 1
  12    6    7 1
  13    7    8 1
  14    8   41 1
  15    8   42 1
  16    8   43 1
  17    9   10 1
  18    9   14 1
  19   10   11 1
  20   10   44 1
  21   10   45 1
  22   11   12 1
  23   11   46 1
  24   11   47 1
  25   12   13 1
  26   12   15 am
  27   13   14 1
  28   13   48 1
  29   13   49 1
  30   14   50 1
  31   14   51 1
  32   15   16 2
  33   15   17 1
  34   17   18 ar
  35   17   22 ar
  36   18   19 ar
  37   18   52 1
  38   19   20 ar
  39   19   53 1
  40   20   21 ar
  41   20   23 1
  42   21   22 ar
  43   21   54 1
  44   22   55 1
  45   23   24 am
  46   23   56 1
  47   24   25 2
  48   24   26 1
  49   24   32 2
  50   26   27 ar
  51   26   31 ar
  52   27   28 ar
  53   27   33 ar
  54   28   29 ar
  55   28   36 ar
  56   29   30 ar
  57   29   57 1
  58   30   31 ar
  59   30   58 1
  60   31   59 1
  61   33   34 ar
  62   33   60 1
  63   34   35 ar
  64   34   61 1
  65   35   36 ar
  66   35   62 1
  67   36   63 1

#	End of record

