#	Name: ASD03740130
#	Creating user name:	WinNT
#	Creation time:	15. 06. 2019 20:46

#	Modifying user name:	WinNT
#	Modification time:	15. 06. 2019 20:46

#	Program:	/corina/corina34_cracker 3.40 0067  02.08.2006

@<TRIPOS>MOLECULE
ASD03740130
  31   33    0    0    0
SMALL
NO_CHARGES


@<TRIPOS>ATOM
   1 C1            -0.0168     1.3860     0.0097 C.ar    
   2 C2             0.0021    -0.0041     0.0020 C.ar    
   3 C3            -1.1618    -0.7195     0.0088 C.ar    
   4 C4            -2.3848    -0.0540     0.0241 C.ar    
   5 C5            -2.4066     1.3542     0.0323 C.ar    
   6 C6            -1.2017     2.0653     0.0303 C.ar    
   7 N7            -3.6913    -0.4689     0.0340 N.pl3   
   8 N8            -4.5269     0.6528     0.0482 N.2     
   9 C9            -3.8133     1.7423     0.0477 C.2     
  10 Cl10           1.4793     2.2665     0.0001 Cl      
  11 C11            1.3223    -0.7305    -0.0145 C.3     
  12 C12           -5.4850    -2.2063     2.1128 C.ar    
  13 C13           -4.2809    -2.3501     1.4490 C.ar    
  14 C14           -3.2059    -2.9407     2.0866 C.ar    
  15 C15           -3.3343    -3.3877     3.3881 C.ar    
  16 C16           -4.5391    -3.2440     4.0529 C.ar    
  17 C17           -5.6147    -2.6529     3.4143 C.ar    
  18 C18           -4.1404    -1.8633     0.0298 C.3     
  19 Cl19          -4.7013    -3.8058     5.6875 Cl      
  20 H20           -1.1333    -1.7991     0.0021 H       
  21 H21           -1.2084     3.1452     0.0366 H       
  22 H22           -4.1946     2.7527     0.0574 H       
  23 H23            1.6504    -0.9112     1.0091 H       
  24 H24            1.2067    -1.6826    -0.5324 H       
  25 H25            2.0648    -0.1232    -0.5322 H       
  26 H26           -6.3233    -1.7408     1.6157 H       
  27 H27           -2.2655    -3.0531     1.5674 H       
  28 H28           -2.4944    -3.8494     3.8860 H       
  29 H29           -6.5553    -2.5401     3.9329 H       
  30 H30           -5.1038    -1.9333    -0.4754 H       
  31 H31           -3.4096    -2.4788    -0.4948 H       
@<TRIPOS>BOND
   1    1    2 ar
   2    1   10 1
   3    1    6 ar
   4    2    3 ar
   5    2   11 1
   6    3    4 ar
   7    3   20 1
   8    4    5 ar
   9    4    7 1
  10    5    6 ar
  11    5    9 1
  12    6   21 1
  13    7    8 1
  14    7   18 1
  15    8    9 2
  16    9   22 1
  17   11   23 1
  18   11   24 1
  19   11   25 1
  20   12   13 ar
  21   12   17 ar
  22   12   26 1
  23   13   14 ar
  24   13   18 1
  25   14   15 ar
  26   14   27 1
  27   15   16 ar
  28   15   28 1
  29   16   17 ar
  30   16   19 1
  31   17   29 1
  32   18   30 1
  33   18   31 1

#	End of record

