#	Name: ASD03332074
#	Creating user name:	WinNT
#	Creation time:	15. 06. 2019 20:40

#	Modifying user name:	WinNT
#	Modification time:	15. 06. 2019 20:40

#	Program:	/corina/corina34_cracker 3.40 0067  02.08.2006

@<TRIPOS>MOLECULE
ASD03332074
  71   72    0    0    0
SMALL
NO_CHARGES


@<TRIPOS>ATOM
   1 C1             0.3277     0.8952    -0.1748 C.2     
   2 N2             0.4188    -0.4531    -0.0942 N.pl3   
   3 C3             1.7241    -0.7628     0.1628 C.2     
   4 N4             2.4079     0.3555     0.2566 N.2     
   5 C5             1.5732     1.3977     0.0560 C.2     
   6 C6             1.9430     2.8241     0.0825 C.2     
   7 O7             1.0970     3.6753    -0.1145 O.2     
   8 N8             3.2186     3.1851     0.3251 N.am    
   9 C9             3.5862     4.6030     0.3514 C.3     
  10 C10            3.8760     5.0813    -1.0727 C.3     
  11 C11            4.9397     4.1823    -1.7061 C.3     
  12 C12            4.8156     4.7875     1.2032 C.2     
  13 C13            2.5928     5.0163    -1.9036 C.3     
  14 C14            4.3851     6.5235    -1.0327 C.3     
  15 O15            5.4321     3.8197     1.5959 O.2     
  16 N16            5.2301     6.0280     1.5286 N.am    
  17 C17           -0.6970    -1.3916    -0.2415 C.3     
  18 C18           -1.5146    -1.0101    -1.4794 C.3     
  19 C19           -2.5772     0.0160    -1.0988 C.3     
  20 N20           -2.0942     0.9042    -0.0394 N.3     
  21 C21           -0.9238     1.6764    -0.4817 C.3     
  22 C22            2.2728    -2.1215     0.3101 C.2     
  23 C23           -3.1647     1.7936     0.4307 C.3     
  24 C24            6.4693     6.2105     2.2883 C.3     
  25 C25            3.5663    -2.2920     0.5605 C.2     
  26 C26            4.1279    -3.6823     0.7112 C.3     
  27 N27            5.2435    -3.8642    -0.2270 N.3     
  28 C28            5.9664    -5.1126     0.0503 C.3     
  29 C29            6.8430    -4.9295     1.2909 C.3     
  30 C30            4.7731    -3.8261    -1.6181 C.3     
  31 C31            5.9647    -3.6134    -2.5539 C.3     
  32 H32            3.8933     2.5062     0.4822 H       
  33 H33            2.7640     5.1838     0.7695 H       
  34 H34            4.5770     3.1548    -1.7346 H       
  35 H35            5.1462     4.5231    -2.7207 H       
  36 H36            5.8539     4.2286    -1.1142 H       
  37 H37            1.8350     5.6567    -1.4523 H       
  38 H38            2.7993     5.3570    -2.9181 H       
  39 H39            2.2301     3.9888    -1.9321 H       
  40 H40            5.2355     6.5899    -0.3541 H       
  41 H41            4.6937     6.8278    -2.0328 H       
  42 H42            3.5888     7.1804    -0.6826 H       
  43 H43            4.7078     6.7999     1.2598 H       
  44 H44           -0.3089    -2.4034    -0.3589 H       
  45 H45           -1.3320    -1.3443     0.6431 H       
  46 H46           -0.8529    -0.5841    -2.2337 H       
  47 H47           -1.9978    -1.8998    -1.8831 H       
  48 H48           -2.8311     0.6107    -1.9764 H       
  49 H49           -3.4690    -0.5048    -0.7503 H       
  50 H50           -0.8963     2.6303     0.0451 H       
  51 H51           -0.9887     1.8536    -1.5553 H       
  52 H52            1.6237    -2.9794     0.2145 H       
  53 H53           -3.9873     1.1960     0.8236 H       
  54 H54           -2.7790     2.4424     1.2170 H       
  55 H55           -3.5222     2.4024    -0.3998 H       
  56 H56            6.3856     5.7006     3.2481 H       
  57 H57            7.3047     5.7926     1.7266 H       
  58 H58            6.6397     7.2740     2.4555 H       
  59 H59            4.2155    -1.4341     0.6560 H       
  60 H60            4.4849    -3.8213     1.7316 H       
  61 H61            3.3491    -4.4140     0.4958 H       
  62 H62            5.2506    -5.9155     0.2264 H       
  63 H63            6.5942    -5.3663    -0.8039 H       
  64 H64            7.4919    -4.0646     1.1529 H       
  65 H65            6.2091    -4.7726     2.1637 H       
  66 H66            7.4524    -5.8209     1.4399 H       
  67 H67            4.2834    -4.7689    -1.8620 H       
  68 H68            4.0647    -3.0067    -1.7399 H       
  69 H69            6.5173    -2.7269    -2.2427 H       
  70 H70            6.6200    -4.4834    -2.5113 H       
  71 H71            5.6059    -3.4783    -3.5742 H       
@<TRIPOS>BOND
   1    1    2 1
   2    1    5 2
   3    1   21 1
   4    2    3 1
   5    2   17 1
   6    3    4 2
   7    3   22 1
   8    4    5 1
   9    5    6 1
  10    6    7 2
  11    6    8 am
  12    8    9 1
  13    8   32 1
  14    9   10 1
  15    9   12 1
  16    9   33 1
  17   10   11 1
  18   10   13 1
  19   10   14 1
  20   11   34 1
  21   11   35 1
  22   11   36 1
  23   12   15 2
  24   12   16 am
  25   13   37 1
  26   13   38 1
  27   13   39 1
  28   14   40 1
  29   14   41 1
  30   14   42 1
  31   16   24 1
  32   16   43 1
  33   17   18 1
  34   17   44 1
  35   17   45 1
  36   18   19 1
  37   18   46 1
  38   18   47 1
  39   19   20 1
  40   19   48 1
  41   19   49 1
  42   20   21 1
  43   20   23 1
  44   21   50 1
  45   21   51 1
  46   22   25 2
  47   22   52 1
  48   23   53 1
  49   23   54 1
  50   23   55 1
  51   24   56 1
  52   24   57 1
  53   24   58 1
  54   25   26 1
  55   25   59 1
  56   26   27 1
  57   26   60 1
  58   26   61 1
  59   27   28 1
  60   27   30 1
  61   28   29 1
  62   28   62 1
  63   28   63 1
  64   29   64 1
  65   29   65 1
  66   29   66 1
  67   30   31 1
  68   30   67 1
  69   30   68 1
  70   31   69 1
  71   31   70 1
  72   31   71 1

#	End of record

