#	Name: ASD01190049
#	Creating user name:	WinNT
#	Creation time:	15. 06. 2019 19:07

#	Modifying user name:	WinNT
#	Modification time:	15. 06. 2019 19:07

#	Program:	/corina/corina34_cracker 3.40 0067  02.08.2006

@<TRIPOS>MOLECULE
ASD01190049
  52   56    0    0    0
SMALL
NO_CHARGES


@<TRIPOS>ATOM
   1 C1            -0.0187     1.5258     0.0104 C.3     
   2 C2             0.5213     0.1130    -0.2205 C.3     
   3 N3             3.1197     3.1620     1.0256 N.pl3   
   4 C4             2.3875     2.0743     0.6343 C.2     
   5 C5             1.1070     2.4292     0.4438 C.2     
   6 C6             1.0113     3.8612     0.7371 C.ar    
   7 C7            -0.0334     4.7875     0.7211 C.ar    
   8 C8             0.2093     6.0895     1.0568 C.ar    
   9 C9             1.4868     6.4993     1.4140 C.ar    
  10 C10            2.5319     5.6023     1.4360 C.ar    
  11 C11            2.3075     4.2714     1.0983 C.ar    
  12 C12            4.5530     3.1470     1.3282 C.3     
  13 F13            1.0786    -0.3731     0.9671 F       
  14 F14           -0.5236    -0.7257    -0.6228 F       
  15 F15            1.5028     0.1460    -1.2169 F       
  16 N16           -2.4969     3.4602    -4.6480 N.am    
  17 N17           -3.8270     3.4250    -4.2166 N.2     
  18 C18           -3.8888     2.9828    -2.9930 C.2     
  19 C19           -2.5272     2.6962    -2.5534 C.ar    
  20 C20           -1.9707     2.2102    -1.3648 C.ar    
  21 C21           -0.6190     2.0494    -1.2688 C.ar    
  22 C22            0.2093     2.3644    -2.3393 C.ar    
  23 C23           -0.3101     2.8410    -3.5092 C.ar    
  24 C24           -1.6861     3.0152    -3.6368 C.ar    
  25 S25           -1.9847     3.9538    -6.1434 S.o2    
  26 O26           -0.7235     3.3360    -6.3597 O.2     
  27 O27           -3.0908     3.7904    -7.0205 O.2     
  28 C28           -1.6797     5.6864    -6.0447 C.ar    
  29 C29           -0.4262     6.1484    -5.6894 C.ar    
  30 C30           -0.1869     7.5076    -5.6119 C.ar    
  31 C31           -1.2010     8.4049    -5.8901 C.ar    
  32 C32           -2.4543     7.9429    -6.2462 C.ar    
  33 C33           -2.6924     6.5837    -6.3279 C.ar    
  34 O34           -1.0212     1.4921     1.0282 O.3     
  35 H35            2.7815     1.0780     0.4984 H       
  36 H36           -1.0297     4.4760     0.4440 H       
  37 H37           -0.5990     6.8056     1.0439 H       
  38 H38            1.6630     7.5319     1.6768 H       
  39 H39            3.5222     5.9309     1.7149 H       
  40 H40            5.1183     3.3563     0.4200 H       
  41 H41            4.7742     3.9075     2.0771 H       
  42 H42            4.8330     2.1662     1.7125 H       
  43 H43           -4.7872     2.8522    -2.4081 H       
  44 H44           -2.6075     1.9643    -0.5279 H       
  45 H45            1.2769     2.2309    -2.2449 H       
  46 H46            0.3447     3.0827    -4.3334 H       
  47 H47            0.3661     5.4473    -5.4721 H       
  48 H48            0.7922     7.8685    -5.3337 H       
  49 H49           -1.0142     9.4669    -5.8288 H       
  50 H50           -3.2466     8.6440    -6.4632 H       
  51 H51           -3.6705     6.2228    -6.6097 H       
  52 H52           -1.4087     2.3553     1.2273 H       
@<TRIPOS>BOND
   1    1    2 1
   2    1    5 1
   3    1   21 1
   4    1   34 1
   5    2   13 1
   6    2   14 1
   7    2   15 1
   8    3    4 1
   9    3   11 1
  10    3   12 1
  11    4    5 2
  12    4   35 1
  13    5    6 1
  14    6    7 ar
  15    6   11 ar
  16    7    8 ar
  17    7   36 1
  18    8    9 ar
  19    8   37 1
  20    9   10 ar
  21    9   38 1
  22   10   11 ar
  23   10   39 1
  24   12   40 1
  25   12   41 1
  26   12   42 1
  27   16   17 1
  28   16   24 1
  29   16   25 am
  30   17   18 2
  31   18   19 1
  32   18   43 1
  33   19   20 ar
  34   19   24 ar
  35   20   21 ar
  36   20   44 1
  37   21   22 ar
  38   22   23 ar
  39   22   45 1
  40   23   24 ar
  41   23   46 1
  42   25   26 2
  43   25   27 2
  44   25   28 1
  45   28   29 ar
  46   28   33 ar
  47   29   30 ar
  48   29   47 1
  49   30   31 ar
  50   30   48 1
  51   31   32 ar
  52   31   49 1
  53   32   33 ar
  54   32   50 1
  55   33   51 1
  56   34   52 1

#	End of record

