#	Name: ASD07931622
#	Creating user name:	WinNT
#	Creation time:	15. 06. 2019 21:13

#	Modifying user name:	WinNT
#	Modification time:	15. 06. 2019 21:13

#	Program:	/corina/corina34_cracker 3.40 0067  02.08.2006

@<TRIPOS>MOLECULE
ASD07931622
  55   60    0    0    0
SMALL
NO_CHARGES


@<TRIPOS>ATOM
   1 N1            -0.4506     3.1626    -0.2916 N.pl3   
   2 C2             0.8812     2.9901    -0.2473 C.2     
   3 C3             1.7500     4.0136    -0.5313 C.2     
   4 C4             1.2080     5.3424    -0.8966 C.2     
   5 C5            -0.2599     5.4843    -0.9331 C.ar    
   6 C6            -0.8651     6.6953    -1.2661 C.ar    
   7 C7            -2.2459     6.7950    -1.2915 C.ar    
   8 C8            -3.0303     5.7003    -0.9884 C.ar    
   9 C9            -2.4434     4.4794    -0.6526 C.ar    
  10 C10           -1.0432     4.3632    -0.6214 C.ar    
  11 N11            3.4309     5.4518    -0.9306 N.am    
  12 N12            2.2226     6.1286    -1.1150 N.2     
  13 C13            3.2008     4.1689    -0.5766 C.2     
  14 C14           -3.2652     3.3493    -0.3395 C.1     
  15 N15           -3.9171     2.4528    -0.0911 N.1     
  16 C16           -1.3134     2.0201     0.0191 C.3     
  17 C17           -1.8091     2.1362     1.4375 C.ar    
  18 C18           -1.3971     3.1932     2.2281 C.ar    
  19 C19           -1.8498     3.3022     3.5285 C.ar    
  20 C20           -2.7197     2.3495     4.0414 C.ar    
  21 C21           -3.1320     1.2896     3.2450 C.ar    
  22 C22           -2.6796     1.1886     1.9439 C.ar    
  23 N23           -3.1805     2.4572     5.3609 N.pl3   
  24 N24           -2.8475     3.4692     6.2705 N.2     
  25 C25           -3.4712     3.2294     7.3958 C.2     
  26 C26           -4.2210     2.0584     7.2402 C.2     
  27 C27           -4.0298     1.6058     5.9793 C.2     
  28 O28            4.0373     3.3123    -0.3414 O.2     
  29 C29            4.6992     6.0219    -1.0907 C.ar    
  30 C30            5.0361     6.6462    -2.2851 C.ar    
  31 C31            6.2879     7.2080    -2.4397 C.ar    
  32 C32            7.2062     7.1494    -1.4070 C.ar    
  33 C33            6.8742     6.5284    -0.2170 C.ar    
  34 C34            5.6215     5.9698    -0.0537 C.ar    
  35 C35            4.0366     6.7097    -3.4112 C.3     
  36 F36           -0.1044     7.7714    -1.5636 F       
  37 H37            1.2779     2.0215     0.0190 H       
  38 H38           -2.7117     7.7346    -1.5495 H       
  39 H39           -4.1064     5.7894    -1.0110 H       
  40 H40           -2.1633     2.0105    -0.6632 H       
  41 H41           -0.7468     1.0957    -0.0932 H       
  42 H42           -0.7204     3.9340     1.8286 H       
  43 H43           -1.5271     4.1276     4.1458 H       
  44 H44           -3.8086     0.5470     3.6413 H       
  45 H45           -3.0029     0.3664     1.3227 H       
  46 H46           -3.4161     3.8315     8.2908 H       
  47 H47           -4.8454     1.5991     7.9922 H       
  48 H48           -4.4741     0.7221     5.5455 H       
  49 H49            6.5504     7.6935    -3.3680 H       
  50 H50            8.1847     7.5893    -1.5305 H       
  51 H51            7.5937     6.4837     0.5872 H       
  52 H52            5.3613     5.4888     0.8776 H       
  53 H53            3.4400     7.6170    -3.3168 H       
  54 H54            4.5640     6.7192    -4.3651 H       
  55 H55            3.3828     5.8387    -3.3662 H       
@<TRIPOS>BOND
   1    1    2 1
   2    1   10 1
   3    1   16 1
   4    2    3 2
   5    2   37 1
   6    3    4 1
   7    3   13 1
   8    4    5 1
   9    4   12 2
  10    5    6 ar
  11    5   10 ar
  12    6    7 ar
  13    6   36 1
  14    7    8 ar
  15    7   38 1
  16    8    9 ar
  17    8   39 1
  18    9   10 ar
  19    9   14 1
  20   11   12 1
  21   11   13 am
  22   11   29 1
  23   13   28 2
  24   14   15 3
  25   16   17 1
  26   16   40 1
  27   16   41 1
  28   17   18 ar
  29   17   22 ar
  30   18   19 ar
  31   18   42 1
  32   19   20 ar
  33   19   43 1
  34   20   21 ar
  35   20   23 1
  36   21   22 ar
  37   21   44 1
  38   22   45 1
  39   23   24 1
  40   23   27 1
  41   24   25 2
  42   25   26 1
  43   25   46 1
  44   26   27 2
  45   26   47 1
  46   27   48 1
  47   29   30 ar
  48   29   34 ar
  49   30   31 ar
  50   30   35 1
  51   31   32 ar
  52   31   49 1
  53   32   33 ar
  54   32   50 1
  55   33   34 ar
  56   33   51 1
  57   34   52 1
  58   35   53 1
  59   35   54 1
  60   35   55 1

#	End of record

