#	Name: ASD01916887
#	Creating user name:	WinNT
#	Creation time:	15. 06. 2019 20:08

#	Modifying user name:	WinNT
#	Modification time:	15. 06. 2019 20:08

#	Program:	/corina/corina34_cracker 3.40 0067  02.08.2006

@<TRIPOS>MOLECULE
ASD01916887
  60   64    0    0    0
SMALL
NO_CHARGES


@<TRIPOS>ATOM
   1 C1            -0.0428     1.4055     0.6044 C.ar    
   2 C2             0.0055     0.0289     0.4346 C.ar    
   3 C3            -1.1515    -0.6798     0.1694 C.ar    
   4 C4            -2.3611    -0.0221     0.0715 C.ar    
   5 C5            -2.4182     1.3601     0.2407 C.ar    
   6 C6            -1.2537     2.0727     0.5139 C.ar    
   7 C7            -3.7175     2.0696     0.1354 C.2     
   8 N8            -3.8970     3.3875     0.2774 N.2     
   9 N9            -4.8784     1.5050    -0.1182 N.2     
  10 N10           -5.8377     2.5304    -0.1291 N.pl3   
  11 C11           -5.1708     3.6811     0.1226 C.2     
  12 C12           -5.7688     5.0316     0.2096 C.ar    
  13 C13           -7.2754     2.3843    -0.3696 C.3     
  14 C14           -7.9758     2.0956     0.9332 C.2     
  15 O15           -7.3369     2.0195     1.9613 O.2     
  16 N16           -9.3122     1.9220     0.9558 N.am    
  17 C17          -10.0155     1.6395     2.2162 C.3     
  18 C18          -11.1814     2.6243     2.3544 C.3     
  19 N19          -12.0178     2.5602     1.1485 N.3     
  20 C20          -11.2682     2.9803    -0.0429 C.3     
  21 C21          -10.1066     2.0162    -0.2784 C.3     
  22 C22          -13.1731     3.3176     1.3028 C.ar    
  23 N23          -13.3840     3.9693     2.4359 N.ar    
  24 C24          -14.0950     3.3887     0.2631 C.ar    
  25 C25          -14.4672     4.6996     2.6228 C.ar    
  26 C26          -15.4255     4.8101     1.6357 C.ar    
  27 C27          -15.2399     4.1463     0.4300 C.ar    
  28 C28           -7.1364     5.1777     0.4439 C.ar    
  29 C29           -7.6890     6.4388     0.5241 C.ar    
  30 C30           -6.8883     7.5597     0.3720 C.ar    
  31 C31           -5.5293     7.4199     0.1387 C.ar    
  32 C32           -4.9659     6.1633     0.0634 C.ar    
  33 F33           -7.4344     8.7929     0.4510 F       
  34 O34            1.0969     2.0984     0.8650 O.3     
  35 C35            2.3086     1.3457     0.9504 C.3     
  36 H36            0.9497    -0.4900     0.5095 H       
  37 H37           -1.1087    -1.7510     0.0380 H       
  38 H38           -3.2630    -0.5785    -0.1365 H       
  39 H39           -1.2929     3.1439     0.6458 H       
  40 H40           -7.6680     3.3071    -0.7965 H       
  41 H41           -7.4459     1.5614    -1.0638 H       
  42 H42          -10.3980     0.6189     2.2012 H       
  43 H43           -9.3296     1.7642     3.0541 H       
  44 H44          -11.7795     2.3598     3.2264 H       
  45 H45          -10.7915     3.6352     2.4734 H       
  46 H46          -11.9293     2.9741    -0.9095 H       
  47 H47          -10.8771     3.9863     0.1094 H       
  48 H48           -9.4816     2.3874    -1.0906 H       
  49 H49          -10.4951     1.0301    -0.5328 H       
  50 H50          -13.9186     2.8598    -0.6619 H       
  51 H51          -14.6057     5.2172     3.5605 H       
  52 H52          -16.3090     5.4098     1.7978 H       
  53 H53          -15.9750     4.2169    -0.3581 H       
  54 H54           -7.7613     4.3048     0.5618 H       
  55 H55           -8.7475     6.5530     0.7054 H       
  56 H56           -4.9096     8.2965     0.0205 H       
  57 H57           -3.9068     6.0553    -0.1181 H       
  58 H58            3.1399     2.0182     1.1620 H       
  59 H59            2.2237     0.6101     1.7503 H       
  60 H60            2.4863     0.8347     0.0042 H       
@<TRIPOS>BOND
   1    1    2 ar
   2    1   34 1
   3    1    6 ar
   4    2    3 ar
   5    2   36 1
   6    3    4 ar
   7    3   37 1
   8    4    5 ar
   9    4   38 1
  10    5    6 ar
  11    5    7 1
  12    6   39 1
  13    7    8 1
  14    7    9 2
  15    8   11 2
  16    9   10 1
  17   10   11 1
  18   10   13 1
  19   11   12 1
  20   12   28 ar
  21   12   32 ar
  22   13   14 1
  23   13   40 1
  24   13   41 1
  25   14   15 2
  26   14   16 am
  27   16   17 1
  28   16   21 1
  29   17   18 1
  30   17   42 1
  31   17   43 1
  32   18   19 1
  33   18   44 1
  34   18   45 1
  35   19   20 1
  36   19   22 1
  37   20   21 1
  38   20   46 1
  39   20   47 1
  40   21   48 1
  41   21   49 1
  42   22   23 ar
  43   22   24 ar
  44   23   25 ar
  45   24   27 ar
  46   24   50 1
  47   25   26 ar
  48   25   51 1
  49   26   27 ar
  50   26   52 1
  51   27   53 1
  52   28   29 ar
  53   28   54 1
  54   29   30 ar
  55   29   55 1
  56   30   31 ar
  57   30   33 1
  58   31   32 ar
  59   31   56 1
  60   32   57 1
  61   34   35 1
  62   35   58 1
  63   35   59 1
  64   35   60 1

#	End of record

