#	Name: ASD03430173
#	Creating user name:	WinNT
#	Creation time:	15. 06. 2019 20:40

#	Modifying user name:	WinNT
#	Modification time:	15. 06. 2019 20:40

#	Program:	/corina/corina34_cracker 3.40 0067  02.08.2006

@<TRIPOS>MOLECULE
ASD03430173
  57   62    0    0    0
SMALL
NO_CHARGES


@<TRIPOS>ATOM
   1 C1            -0.0445     1.3592     0.1269 C.ar    
   2 C2            -0.0179    -0.0174     0.0897 C.ar    
   3 C3             1.1881    -0.6860     0.0617 C.ar    
   4 C4             2.3863     0.0234     0.0795 C.ar    
   5 C5             2.3506     1.4125     0.1064 C.ar    
   6 C6             1.1377     2.0903     0.1272 C.ar    
   7 O7             3.4574    -0.8201     0.0799 O.3     
   8 C8             1.5522    -2.1445    -0.0013 C.3     
   9 C9             3.0400    -2.1197    -0.3794 C.3     
  10 C10            0.4460    -3.8963     1.0128 C.ar    
  11 C11            1.3189    -2.8503     1.3017 C.ar    
  12 C12            0.7330    -2.8941    -1.0120 C.2     
  13 N13            0.1239    -3.8956    -0.3462 N.am    
  14 O14            0.6379    -2.6469    -2.1956 O.2     
  15 C15            1.7753    -2.6535     2.5854 C.ar    
  16 C16            1.3687    -3.4983     3.6033 C.ar    
  17 C17            0.5021    -4.5399     3.3281 C.ar    
  18 C18            0.0414    -4.7412     2.0434 C.ar    
  19 C19           -0.7713    -4.8700    -0.9750 C.3     
  20 C20           -1.1849     2.3565     0.1816 C.3     
  21 C21           -0.4554     3.6542     0.6027 C.3     
  22 O22            0.8868     3.4292     0.1390 O.3     
  23 C23           -2.1869    -4.3555    -0.9274 C.2     
  24 N24           -3.1888    -5.0897    -1.4505 N.am    
  25 O25           -2.4247    -3.2806    -0.4183 O.2     
  26 C26           -4.5125    -4.6521    -1.3321 C.ar    
  27 C27           -4.7873    -3.2994    -1.1813 C.ar    
  28 C28           -6.0951    -2.8706    -1.0646 C.ar    
  29 C29           -7.1301    -3.7867    -1.0974 C.ar    
  30 C30           -6.8598    -5.1348    -1.2475 C.ar    
  31 C31           -5.5549    -5.5693    -1.3709 C.ar    
  32 C32           -5.2612    -7.0383    -1.5350 C.3     
  33 C33           -8.5558    -3.3155    -0.9688 C.3     
  34 H34           -0.9432    -0.5744     0.0828 H       
  35 H35            3.2751     1.9709     0.1119 H       
  36 H36            3.1666    -2.2078    -1.4585 H       
  37 H37            3.5848    -2.9074     0.1409 H       
  38 H38            2.4519    -1.8390     2.7984 H       
  39 H39            1.7277    -3.3446     4.6102 H       
  40 H40            0.1846    -5.1991     4.1224 H       
  41 H41           -0.6351    -5.5571     1.8361 H       
  42 H42           -0.4739    -5.0197    -2.0129 H       
  43 H43           -0.7108    -5.8174    -0.4395 H       
  44 H44           -1.6494     2.4712    -0.7978 H       
  45 H45           -1.9225     2.0643     0.9291 H       
  46 H46           -0.8941     4.5214     0.1093 H       
  47 H47           -0.4747     3.7740     1.6859 H       
  48 H48           -2.9921    -5.9216    -1.9091 H       
  49 H49           -3.9792    -2.5834    -1.1549 H       
  50 H50           -6.3095    -1.8186    -0.9473 H       
  51 H51           -7.6705    -5.8479    -1.2728 H       
  52 H52           -5.2532    -7.2909    -2.5952 H       
  53 H53           -4.2879    -7.2650    -1.1000 H       
  54 H54           -6.0303    -7.6213    -1.0283 H       
  55 H55           -8.9577    -3.0996    -1.9587 H       
  56 H56           -9.1544    -4.0938    -0.4955 H       
  57 H57           -8.5863    -2.4124    -0.3593 H       
@<TRIPOS>BOND
   1    1    2 ar
   2    1    6 ar
   3    1   20 1
   4    2    3 ar
   5    2   34 1
   6    3    4 ar
   7    3    8 1
   8    4    5 ar
   9    4    7 1
  10    5    6 ar
  11    5   35 1
  12    6   22 1
  13    7    9 1
  14    8    9 1
  15    8   11 1
  16    8   12 1
  17    9   36 1
  18    9   37 1
  19   10   11 ar
  20   10   13 1
  21   10   18 ar
  22   11   15 ar
  23   12   13 am
  24   12   14 2
  25   13   19 1
  26   15   16 ar
  27   15   38 1
  28   16   17 ar
  29   16   39 1
  30   17   18 ar
  31   17   40 1
  32   18   41 1
  33   19   23 1
  34   19   42 1
  35   19   43 1
  36   20   21 1
  37   20   44 1
  38   20   45 1
  39   21   22 1
  40   21   46 1
  41   21   47 1
  42   23   24 am
  43   23   25 2
  44   24   26 1
  45   24   48 1
  46   26   27 ar
  47   26   31 ar
  48   27   28 ar
  49   27   49 1
  50   28   29 ar
  51   28   50 1
  52   29   30 ar
  53   29   33 1
  54   30   31 ar
  55   30   51 1
  56   31   32 1
  57   32   52 1
  58   32   53 1
  59   32   54 1
  60   33   55 1
  61   33   56 1
  62   33   57 1

#	End of record

