#	Name: ASD01810520
#	Creating user name:	WinNT
#	Creation time:	15. 06. 2019 19:24

#	Modifying user name:	WinNT
#	Modification time:	15. 06. 2019 19:24

#	Program:	/corina/corina34_cracker 3.40 0067  02.08.2006

@<TRIPOS>MOLECULE
ASD01810520
  50   53    0    0    0
SMALL
NO_CHARGES


@<TRIPOS>ATOM
   1 C1             0.1627     1.5210     0.0740 C.2     
   2 N2             0.0702     0.1585     0.0760 N.am    
   3 C3             1.1315    -0.6578     0.0783 C.2     
   4 N4             2.3957    -0.1906     0.0784 N.am    
   5 C5             2.6040     1.2672     0.0758 C.3     
   6 C6             1.3640     2.1380     0.0738 C.2     
   7 C7            -1.0961     2.3494     0.0656 C.3     
   8 C8            -1.2653    -0.4438     0.0761 C.3     
   9 O9             0.9489    -1.8596     0.0808 O.2     
  10 C10            3.4185     1.6222     1.2931 C.ar    
  11 C11            2.8107     2.2292     2.3768 C.ar    
  12 C12            4.7701     1.3353     1.3261 C.ar    
  13 C13            5.5216     1.6592     2.4408 C.ar    
  14 C14            3.5572     2.5563     3.4967 C.ar    
  15 N15            5.4143     0.6797     0.1662 N.pl3   
  16 O16            6.5814     0.3371     0.2310 O.2     
  17 O17            4.7775     0.4826    -0.8532 O.2     
  18 O18            3.2081     3.1479     4.6762 O.3     
  19 C19            4.9207     2.2720     3.5278 C.ar    
  20 O20            5.4255     2.6872     4.7261 O.3     
  21 C21            4.2832     2.8529     5.5874 C.3     
  22 C22            1.4613     3.5492     0.0713 C.2     
  23 O23            2.6678     4.1421    -0.0459 O.3     
  24 O24            0.4570     4.2284     0.1748 O.2     
  25 C25            2.6826     5.5669    -0.1547 C.3     
  26 C26            3.5802     7.5976     0.8083 C.3     
  27 C27            3.0196     6.2115     1.2127 C.3     
  28 C28            3.8273     6.0256    -1.0816 C.3     
  29 C29            4.3980     7.3168    -0.4693 C.3     
  30 H30            3.1503    -0.8000     0.0804 H       
  31 H31            3.1944     1.5207    -0.8047 H       
  32 H32           -1.9617     1.6941    -0.0324 H       
  33 H33           -1.1684     2.9099     0.9976 H       
  34 H34           -1.0688     3.0433    -0.7745 H       
  35 H35           -1.6349    -0.5083    -0.9473 H       
  36 H36           -1.2129    -1.4436     0.5072 H       
  37 H37           -1.9417     0.1723     0.6686 H       
  38 H38            1.7536     2.4485     2.3499 H       
  39 H39            6.5776     1.4339     2.4638 H       
  40 H40            4.4404     3.6831     6.2759 H       
  41 H41            4.0793     1.9329     6.1353 H       
  42 H42            1.7237     5.9303    -0.5241 H       
  43 H43            2.7665     8.2910     0.5957 H       
  44 H44            4.2240     7.9928     1.5941 H       
  45 H45            2.1212     6.3205     1.8203 H       
  46 H46            3.7749     5.6280     1.7392 H       
  47 H47            4.6014     5.2596    -1.1261 H       
  48 H48            3.4411     6.2254    -2.0811 H       
  49 H49            4.2887     8.1432    -1.1717 H       
  50 H50            5.4491     7.1774    -0.2167 H       
@<TRIPOS>BOND
   1    1    2 1
   2    1    6 2
   3    1    7 1
   4    2    3 am
   5    2    8 1
   6    3    4 am
   7    3    9 2
   8    4    5 1
   9    4   30 1
  10    5    6 1
  11    5   10 1
  12    5   31 1
  13    6   22 1
  14    7   32 1
  15    7   33 1
  16    7   34 1
  17    8   35 1
  18    8   36 1
  19    8   37 1
  20   10   12 ar
  21   10   11 ar
  22   11   14 ar
  23   11   38 1
  24   12   13 ar
  25   12   15 1
  26   13   19 ar
  27   13   39 1
  28   14   19 ar
  29   14   18 1
  30   15   16 2
  31   15   17 2
  32   18   21 1
  33   19   20 1
  34   20   21 1
  35   21   40 1
  36   21   41 1
  37   22   23 1
  38   22   24 2
  39   23   25 1
  40   25   28 1
  41   25   27 1
  42   25   42 1
  43   26   27 1
  44   26   29 1
  45   26   43 1
  46   26   44 1
  47   27   45 1
  48   27   46 1
  49   28   29 1
  50   28   47 1
  51   28   48 1
  52   29   49 1
  53   29   50 1

#	End of record

