#	Name: ASD03092112
#	Creating user name:	WinNT
#	Creation time:	15. 06. 2019 20:32

#	Modifying user name:	WinNT
#	Modification time:	15. 06. 2019 20:32

#	Program:	/corina/corina34_cracker 3.40 0067  02.08.2006

@<TRIPOS>MOLECULE
ASD03092112
  47   50    0    0    0
SMALL
NO_CHARGES


@<TRIPOS>ATOM
   1 N1            -0.1526     0.9730     0.1740 N.am    
   2 C2            -0.3486    -0.3798     0.0704 C.2     
   3 C3            -1.6920    -0.5900    -0.0267 C.2     
   4 C4            -2.3273     0.6615     0.0189 C.2     
   5 N5            -1.4094     1.5907     0.1445 N.2     
   6 N6            -3.7056     0.8801    -0.0520 N.pl3   
   7 C7            -4.2182     2.1711     0.1117 C.ar    
   8 C8            -5.5926     2.3720     0.1777 C.ar    
   9 C9            -6.0953     3.6511     0.3397 C.ar    
  10 C10           -5.2312     4.7279     0.4353 C.ar    
  11 C11           -3.3556     3.2546     0.2144 C.ar    
  12 C12            0.7033    -1.4192     0.0642 C.ar    
  13 C13            1.0365     1.5968     0.2896 C.2     
  14 C14            0.5062    -2.6459     0.7087 C.ar    
  15 C15            1.5141    -3.5869     0.6779 C.ar    
  16 N16            2.6503    -3.3427     0.0531 N.ar    
  17 C17            2.8771    -2.2001    -0.5668 C.ar    
  18 C18            1.9215    -1.2058    -0.5914 C.ar    
  19 C19            4.1956    -1.9811    -1.2628 C.3     
  20 C20           -3.8644     4.5295     0.3693 C.ar    
  21 Cl21          -7.8107     3.9051     0.4224 Cl      
  22 N22            1.0958     2.9431     0.2707 N.am    
  23 O23            2.0551     0.9454     0.4108 O.2     
  24 C24            2.3884     3.6212     0.3962 C.3     
  25 C25            1.3152    -4.9119     1.3677 C.3     
  26 C26            2.5087     5.0275    -0.1942 C.3     
  27 C27            2.4616     4.8363     1.3231 C.3     
  28 F28           -6.4355     1.3204     0.0834 F       
  29 H29           -2.1807    -1.5484    -0.1222 H       
  30 H30           -4.3069     0.1366    -0.2148 H       
  31 H31           -5.6254     5.7254     0.5613 H       
  32 H32           -2.2875     3.1011     0.1679 H       
  33 H33           -0.4210    -2.8524     1.2227 H       
  34 H34            2.1139    -0.2731    -1.1007 H       
  35 H35            4.1218    -2.3201    -2.2961 H       
  36 H36            4.4438    -0.9199    -1.2454 H       
  37 H37            4.9751    -2.5449    -0.7503 H       
  38 H38           -3.1932     5.3723     0.4439 H       
  39 H39            0.2827     3.4631     0.1739 H       
  40 H40            3.2651     2.9758     0.3418 H       
  41 H41            0.8751    -5.6230     0.6686 H       
  42 H42            2.2775    -5.2899     1.7129 H       
  43 H43            0.6491    -4.7811     2.2205 H       
  44 H44            3.4647     5.3075    -0.6368 H       
  45 H45            1.6261     5.4482    -0.6761 H       
  46 H46            1.5481     5.1312     1.8394 H       
  47 H47            3.3866     4.9905     1.8787 H       
@<TRIPOS>BOND
   1    1    2 1
   2    1   13 am
   3    1    5 1
   4    2    3 2
   5    2   12 1
   6    3    4 1
   7    3   29 1
   8    4    5 2
   9    4    6 1
  10    6    7 1
  11    6   30 1
  12    7    8 ar
  13    7   11 ar
  14    8    9 ar
  15    8   28 1
  16    9   10 ar
  17    9   21 1
  18   10   20 ar
  19   10   31 1
  20   11   20 ar
  21   11   32 1
  22   12   14 ar
  23   12   18 ar
  24   13   22 am
  25   13   23 2
  26   14   15 ar
  27   14   33 1
  28   15   16 ar
  29   15   25 1
  30   16   17 ar
  31   17   18 ar
  32   17   19 1
  33   18   34 1
  34   19   35 1
  35   19   36 1
  36   19   37 1
  37   20   38 1
  38   22   24 1
  39   22   39 1
  40   24   26 1
  41   24   27 1
  42   24   40 1
  43   25   41 1
  44   25   42 1
  45   25   43 1
  46   26   27 1
  47   26   44 1
  48   26   45 1
  49   27   46 1
  50   27   47 1

#	End of record

