#	Name: ASD01200361
#	Creating user name:	WinNT
#	Creation time:	15. 06. 2019 19:09

#	Modifying user name:	WinNT
#	Modification time:	15. 06. 2019 19:09

#	Program:	/corina/corina34_cracker 3.40 0067  02.08.2006

@<TRIPOS>MOLECULE
ASD01200361
  60   63    0    0    0
SMALL
NO_CHARGES


@<TRIPOS>ATOM
   1 N1            -0.0168     1.3858     0.0097 N.am    
   2 C2             0.0021    -0.0041     0.0020 C.2     
   3 C3            -0.8483    -2.0652    -0.0056 C.2     
   4 C4             0.4359    -2.4277    -0.0151 C.2     
   5 C5             0.4787     6.0087     0.0397 C.3     
   6 C6             1.1868     8.0568     1.2832 C.3     
   7 C7             0.2269     6.1118     2.5234 C.3     
   8 C8            -4.6965     4.0921     1.1354 C.2     
   9 C9            -5.2033     4.8981     0.1064 C.2     
  10 C10           -4.3879     5.2481    -0.9295 C.2     
  11 C11           -7.8591     3.9353     0.0076 C.3     
  12 O12           -2.2348     1.4230     0.0417 O.2     
  13 C13           -1.1929     2.0437     0.0300 C.2     
  14 N14           -1.0503    -0.7609     0.0024 N.2     
  15 S15            1.4166    -0.9642    -0.0166 S.3     
  16 C16           -1.2133     3.5505     0.0383 C.3     
  17 C17           -0.4812     4.0637     1.2799 C.3     
  18 C18           -0.3930     5.5902     1.2255 C.3     
  19 C19            0.5669     7.5351    -0.0147 C.3     
  20 C20            0.3151     7.6383     2.4689 C.3     
  21 N21           -2.6009     4.0199     0.0607 N.am    
  22 C22           -3.4110     3.6706     1.0927 C.2     
  23 C23           -3.0583     4.7930    -0.9425 C.2     
  24 O24           -2.3180     5.0984    -1.8636 O.2     
  25 S25           -6.8752     5.4525     0.1506 S.o2    
  26 O26           -7.0216     6.0217     1.4444 O.2     
  27 O27           -7.0118     6.2476    -1.0192 O.2     
  28 C28           -9.3544     4.2843    -0.0929 C.3     
  29 C29           -9.8447     3.7360    -1.4489 C.3     
  30 C30           -8.8403     2.6067    -1.7876 C.3     
  31 C31           -7.4930     3.1872    -1.2909 C.3     
  32 H32            0.8166     1.8822     0.0044 H       
  33 H33           -1.6569    -2.7811    -0.0033 H       
  34 H34            0.8089    -3.4412    -0.0206 H       
  35 H35            1.4784     5.5910     0.1584 H       
  36 H36            0.0370     5.6370    -0.8849 H       
  37 H37            2.1865     7.6391     1.4019 H       
  38 H38            1.2496     9.1443     1.2444 H       
  39 H39           -0.3941     5.8137     3.3681 H       
  40 H40            1.2267     5.6941     2.6421 H       
  41 H41           -5.3300     3.8113     1.9638 H       
  42 H42           -4.7603     5.8681    -1.7316 H       
  43 H43           -7.6827     3.2935     0.8707 H       
  44 H44           -0.7173     3.9255    -0.8569 H       
  45 H45           -1.0274     3.7630     2.1740 H       
  46 H46            0.5237     3.6425     1.3092 H       
  47 H47           -1.3928     6.0079     1.1068 H       
  48 H48            1.1878     7.8333    -0.8595 H       
  49 H49           -0.4329     7.9529    -0.1334 H       
  50 H50            0.7567     8.0099     3.3935 H       
  51 H51           -0.6847     8.0560     2.3502 H       
  52 H52           -3.0254     3.0501     1.8881 H       
  53 H53           -9.9036     3.8118     0.7215 H       
  54 H54           -9.4889     5.3653    -0.0557 H       
  55 H55          -10.8536     3.3340    -1.3556 H       
  56 H56           -9.8149     4.5165    -2.2092 H       
  57 H57           -9.0898     1.6932    -1.2479 H       
  58 H58           -8.8103     2.4258    -2.8621 H       
  59 H59           -7.0812     3.8784    -2.0262 H       
  60 H60           -6.7856     2.3846    -1.0822 H       
@<TRIPOS>BOND
   1    1    2 1
   2    1   32 1
   3    1   13 am
   4    2   15 1
   5    2   14 2
   6    3    4 2
   7    3   33 1
   8    3   14 1
   9    4   34 1
  10    4   15 1
  11    5   35 1
  12    5   36 1
  13    5   18 1
  14    5   19 1
  15    6   19 1
  16    6   37 1
  17    6   38 1
  18    6   20 1
  19    7   18 1
  20    7   39 1
  21    7   40 1
  22    7   20 1
  23    8    9 1
  24    8   22 2
  25    8   41 1
  26    9   10 2
  27    9   25 1
  28   10   23 1
  29   10   42 1
  30   11   28 1
  31   11   43 1
  32   11   25 1
  33   11   31 1
  34   12   13 2
  35   13   16 1
  36   16   44 1
  37   16   17 1
  38   16   21 1
  39   17   45 1
  40   17   46 1
  41   17   18 1
  42   18   47 1
  43   19   48 1
  44   19   49 1
  45   20   50 1
  46   20   51 1
  47   21   23 am
  48   21   22 1
  49   22   52 1
  50   23   24 2
  51   25   26 2
  52   25   27 2
  53   28   53 1
  54   28   54 1
  55   28   29 1
  56   29   55 1
  57   29   56 1
  58   29   30 1
  59   30   31 1
  60   30   57 1
  61   30   58 1
  62   31   59 1
  63   31   60 1

#	End of record

