#	Name: ASD01870283
#	Creating user name:	WinNT
#	Creation time:	15. 06. 2019 19:38

#	Modifying user name:	WinNT
#	Modification time:	15. 06. 2019 19:38

#	Program:	/corina/corina34_cracker 3.40 0067  02.08.2006

@<TRIPOS>MOLECULE
ASD01870283
  61   65    0    0    0
SMALL
NO_CHARGES


@<TRIPOS>ATOM
   1 N1            -0.0157     1.3058     0.0092 N.ar    
   2 C2             0.0021    -0.0041     0.0020 C.ar    
   3 C3             1.1978    -0.7210    -0.0133 C.ar    
   4 C4             2.3907    -0.0565    -0.0211 C.ar    
   5 C5             2.3684     1.3512    -0.0134 C.ar    
   6 C6             3.5575     2.0993    -0.0219 C.ar    
   7 C7             3.5104     3.4563    -0.0146 C.ar    
   8 C8             2.2774     4.1351     0.0015 C.ar    
   9 C9             1.0919     3.4179     0.0095 C.ar    
  10 C10            1.1165     2.0179     0.0022 C.ar    
  11 N11            0.6152     5.7488     0.0269 N.am    
  12 C12            1.9480     5.5754     0.0125 C.2     
  13 C13           -0.0266     4.4292     0.0262 C.3     
  14 O14            2.7655     6.4749     0.0097 O.2     
  15 C15           -0.8991     4.2691    -1.2203 C.3     
  16 C16           -0.8739     4.2557     1.2883 C.3     
  17 C17            4.8890     1.3937    -0.0385 C.3     
  18 C18            5.9875     1.9486    -2.2218 C.ar    
  19 C19            5.2606     1.0557    -1.4593 C.ar    
  20 C20            4.8764    -0.1564    -2.0154 C.ar    
  21 C21            5.2390    -0.4271    -3.3236 C.ar    
  22 C22            5.9706     0.5177    -4.0313 C.ar    
  23 N23            6.3179     1.6624    -3.4666 N.ar    
  24 O24            6.3321     0.2644    -5.3142 O.3     
  25 C25            7.0837     1.2758    -5.9882 C.3     
  26 C26           -0.0798     7.0384     0.0408 C.3     
  27 C27            0.3001     7.8360    -1.2084 C.3     
  28 C28           -0.4258     9.1828    -1.1938 C.3     
  29 C29           -0.0198     9.9675     0.0553 C.3     
  30 C30           -0.3997     9.1698     1.3045 C.3     
  31 C31            0.3262     7.8231     1.2899 C.3     
  32 O32           -0.0791     7.1031    -2.3751 O.3     
  33 H33           -0.9340    -0.5427     0.0084 H       
  34 H34            1.1805    -1.8009    -0.0185 H       
  35 H35            3.3260    -0.5962    -0.0326 H       
  36 H36            4.4304     4.0219    -0.0209 H       
  37 H37           -1.3451     3.2746    -1.2264 H       
  38 H38           -1.6882     5.0211    -1.2105 H       
  39 H39           -0.2858     4.3977    -2.1121 H       
  40 H40           -0.2427     4.3747     2.1689 H       
  41 H41           -1.6629     5.0076     1.3024 H       
  42 H42           -1.3198     3.2611     1.2926 H       
  43 H43            5.6504     2.0446     0.3912 H       
  44 H44            4.8218     0.4770     0.5473 H       
  45 H45            6.2851     2.8951    -1.7954 H       
  46 H46            4.3078    -0.8723    -1.4404 H       
  47 H47            4.9571    -1.3607    -3.7876 H       
  48 H48            7.3067     0.9470    -7.0032 H       
  49 H49            6.5023     2.1971    -6.0242 H       
  50 H50            8.0152     1.4548    -5.4513 H       
  51 H51           -1.1567     6.8706     0.0512 H       
  52 H52            1.3770     8.0038    -1.2188 H       
  53 H53           -0.1551     9.7510    -2.0838 H       
  54 H54           -1.5027     9.0150    -1.1835 H       
  55 H55            1.0572    10.1352     0.0449 H       
  56 H56           -0.5369    10.9269     0.0657 H       
  57 H57           -0.1105     9.7289     2.1944 H       
  58 H58           -1.4766     9.0021     1.3149 H       
  59 H59            0.0556     7.2548     2.1799 H       
  60 H60            1.4031     7.9908     1.2795 H       
  61 H61            0.1321     7.5500    -3.2062 H       
@<TRIPOS>BOND
   1    1    2 ar
   2    1   10 ar
   3    2    3 ar
   4    2   33 1
   5    3    4 ar
   6    3   34 1
   7    4    5 ar
   8    4   35 1
   9    5    6 ar
  10    5   10 ar
  11    6    7 ar
  12    6   17 1
  13    7    8 ar
  14    7   36 1
  15    8    9 ar
  16    8   12 1
  17    9   10 ar
  18    9   13 1
  19   11   12 am
  20   11   13 1
  21   11   26 1
  22   12   14 2
  23   13   15 1
  24   13   16 1
  25   15   37 1
  26   15   38 1
  27   15   39 1
  28   16   40 1
  29   16   41 1
  30   16   42 1
  31   17   19 1
  32   17   43 1
  33   17   44 1
  34   18   19 ar
  35   18   23 ar
  36   18   45 1
  37   19   20 ar
  38   20   21 ar
  39   20   46 1
  40   21   22 ar
  41   21   47 1
  42   22   23 ar
  43   22   24 1
  44   24   25 1
  45   25   48 1
  46   25   49 1
  47   25   50 1
  48   26   27 1
  49   26   31 1
  50   26   51 1
  51   27   28 1
  52   27   32 1
  53   27   52 1
  54   28   29 1
  55   28   53 1
  56   28   54 1
  57   29   30 1
  58   29   55 1
  59   29   56 1
  60   30   31 1
  61   30   57 1
  62   30   58 1
  63   31   59 1
  64   31   60 1
  65   32   61 1

#	End of record

