#	Name: ASD01883545
#	Creating user name:	WinNT
#	Creation time:	15. 06. 2019 19:46

#	Modifying user name:	WinNT
#	Modification time:	15. 06. 2019 19:46

#	Program:	/corina/corina34_cracker 3.40 0067  02.08.2006

@<TRIPOS>MOLECULE
ASD01883545
  52   54    0    0    0
SMALL
NO_CHARGES


@<TRIPOS>ATOM
   1 C1            -0.0171     1.4071     0.0098 C.2     
   2 C2            -0.8717     1.4205    -1.1132 C.2     
   3 C3            -2.0207     0.7137    -1.0894 C.2     
   4 N4            -2.3701    -0.0149     0.0042 N.am    
   5 C5            -1.5828    -0.0533     1.0951 C.2     
   6 C6            -0.3781     0.6573     1.1179 C.2     
   7 O7            -1.9184    -0.7148     2.0656 O.2     
   8 N8             1.1653     2.1265     0.0024 N.pl3   
   9 C9             1.1493     3.5921    -0.0998 C.3     
  10 C10            2.0460     4.0148    -1.2677 C.3     
  11 C11            3.4404     3.4132    -1.0786 C.3     
  12 C12            3.3425     1.8859    -1.0731 C.3     
  13 C13            2.4602     1.4395     0.1026 C.3     
  14 C14           -3.6252    -0.7704    -0.0048 C.3     
  15 C15            4.3351     3.8548    -2.2081 C.ar    
  16 C16            5.4825     4.5773    -1.9390 C.ar    
  17 C17            6.3031     4.9824    -2.9750 C.ar    
  18 C18            5.9766     4.6646    -4.2801 C.ar    
  19 C19            4.8297     3.9413    -4.5491 C.ar    
  20 C20            4.0114     3.5325    -3.5128 C.ar    
  21 C21           -3.3696    -2.1774    -0.5488 C.3     
  22 Cl22           0.6432     0.6129     2.5210 Cl      
  23 C23           -4.6804    -2.9665    -0.5583 C.3     
  24 C24           -4.4511    -4.3284    -1.2168 C.3     
  25 C25           -5.1637    -3.1699     0.8791 C.3     
  26 H26           -0.6070     1.9951    -1.9886 H       
  27 H27           -2.6721     0.7270    -1.9508 H       
  28 H28            0.1301     3.9347    -0.2790 H       
  29 H29            1.5257     4.0271     0.8260 H       
  30 H30            1.6184     3.6550    -2.2035 H       
  31 H31            2.1195     5.1020    -1.2950 H       
  32 H32            3.8573     3.7536    -0.1308 H       
  33 H33            2.9026     1.5462    -2.0107 H       
  34 H34            4.3387     1.4579    -0.9618 H       
  35 H35            2.9459     1.6993     1.0432 H       
  36 H36            2.3053     0.3616     0.0546 H       
  37 H37           -4.0155    -0.8388     1.0106 H       
  38 H38           -4.3509    -0.2618    -0.6395 H       
  39 H39            5.7376     4.8256    -0.9193 H       
  40 H40            7.1991     5.5475    -2.7648 H       
  41 H41            6.6174     4.9817    -5.0896 H       
  42 H42            4.5745     3.6933    -5.5688 H       
  43 H43            3.1153     2.9674    -3.7230 H       
  44 H44           -2.9793    -2.1090    -1.5642 H       
  45 H45           -2.6439    -2.6860     0.0859 H       
  46 H46           -5.4333    -2.4135    -1.1200 H       
  47 H47           -3.6982    -4.8814    -0.6551 H       
  48 H48           -5.3849    -4.8905    -1.2235 H       
  49 H49           -4.1068    -4.1835    -2.2408 H       
  50 H50           -5.3270    -2.1996     1.3482 H       
  51 H51           -6.0975    -3.7320     0.8723 H       
  52 H52           -4.4108    -3.7228     1.4407 H       
@<TRIPOS>BOND
   1    1    2 1
   2    1    8 1
   3    1    6 2
   4    2    3 2
   5    2   26 1
   6    3    4 1
   7    3   27 1
   8    4    5 am
   9    4   14 1
  10    5    6 1
  11    5    7 2
  12    6   22 1
  13    8    9 1
  14    8   13 1
  15    9   10 1
  16    9   28 1
  17    9   29 1
  18   10   11 1
  19   10   30 1
  20   10   31 1
  21   11   15 1
  22   11   12 1
  23   11   32 1
  24   12   13 1
  25   12   33 1
  26   12   34 1
  27   13   35 1
  28   13   36 1
  29   14   21 1
  30   14   37 1
  31   14   38 1
  32   15   16 ar
  33   15   20 ar
  34   16   17 ar
  35   16   39 1
  36   17   18 ar
  37   17   40 1
  38   18   19 ar
  39   18   41 1
  40   19   20 ar
  41   19   42 1
  42   20   43 1
  43   21   23 1
  44   21   44 1
  45   21   45 1
  46   23   24 1
  47   23   25 1
  48   23   46 1
  49   24   47 1
  50   24   48 1
  51   24   49 1
  52   25   50 1
  53   25   51 1
  54   25   52 1

#	End of record

