#	Name: ASD04380001
#	Creating user name:	WinNT
#	Creation time:	15. 06. 2019 20:49

#	Modifying user name:	WinNT
#	Modification time:	15. 06. 2019 20:49

#	Program:	/corina/corina34_cracker 3.40 0067  02.08.2006

@<TRIPOS>MOLECULE
ASD04380001
  47   49    0    0    0
SMALL
NO_CHARGES


@<TRIPOS>ATOM
   1 C1            -0.3371     0.8262    -1.6595 C.ar    
   2 C2            -0.1572    -0.2884    -0.8288 C.ar    
   3 C3             1.0889    -0.9615    -0.8264 C.ar    
   4 C4             2.1225    -0.4985    -1.6584 C.ar    
   5 C5             1.9126     0.5872    -2.4529 C.ar    
   6 C6             0.6868     1.2483    -2.4534 C.ar    
   7 C7            -1.1981    -0.7554     0.0100 C.ar    
   8 C8            -0.9758    -1.8597     0.8142 C.ar    
   9 C9             0.2539    -2.5085     0.8045 C.ar    
  10 C10            1.2709    -2.0790     0.0069 C.ar    
  11 C11           -2.5099    -0.0696     0.0269 C.2     
  12 C12           -3.6746    -0.7399    -0.0643 C.2     
  13 S13           -4.9898     0.4315    -0.0073 S.3     
  14 C14           -3.8198     1.7397     0.1369 C.2     
  15 N15           -2.6207     1.2474     0.1383 N.2     
  16 N16           -4.1334     3.0892     0.2392 N.am    
  17 C17           -5.4221     3.4839     0.2332 C.2     
  18 C18           -5.7623     4.9478     0.3442 C.3     
  19 O19           -6.3079     2.6610     0.1383 O.2     
  20 C20           -7.2820     5.1220     0.3129 C.3     
  21 C21           -7.6274     6.6083     0.4256 C.3     
  22 S22           -9.4292     6.8148     0.3884 S.3     
  23 S23          -10.0199     6.0361     2.1904 S.3     
  24 C24           -9.8239     7.4380     3.3248 C.3     
  25 C25          -10.8861     8.4954     3.0172 C.3     
  26 N26          -10.7273     9.6307     3.9357 N.3     
  27 H27           -1.2841     1.3452    -1.6737 H       
  28 H28            3.0784    -1.0010    -1.6674 H       
  29 H29            2.7084     0.9412    -3.0915 H       
  30 H30            0.5452     2.1067    -3.0932 H       
  31 H31           -1.7656    -2.2209     1.4562 H       
  32 H32            0.4052    -3.3682     1.4406 H       
  33 H33            2.2182    -2.5977     0.0144 H       
  34 H34           -3.7836    -1.8104    -0.1569 H       
  35 H35           -3.4249     3.7474     0.3151 H       
  36 H36           -5.3707     5.3418     1.2820 H       
  37 H37           -5.3173     5.4886    -0.4911 H       
  38 H38           -7.6736     4.7281    -0.6250 H       
  39 H39           -7.7270     4.5813     1.1481 H       
  40 H40           -7.2358     7.0022     1.3634 H       
  41 H41           -7.1824     7.1491    -0.4097 H       
  42 H42           -9.9412     7.0933     4.3521 H       
  43 H43           -8.8320     7.8719     3.1981 H       
  44 H44          -10.7688     8.8401     1.9898 H       
  45 H45          -11.8780     8.0615     3.1438 H       
  46 H46           -9.7938    10.0100     3.8838 H       
  47 H47          -11.4179    10.3432     3.7527 H       
@<TRIPOS>BOND
   1    1    2 ar
   2    1    6 ar
   3    1   27 1
   4    2    3 ar
   5    2    7 ar
   6    3    4 ar
   7    3   10 ar
   8    4    5 ar
   9    4   28 1
  10    5    6 ar
  11    5   29 1
  12    6   30 1
  13    7    8 ar
  14    7   11 1
  15    8    9 ar
  16    8   31 1
  17    9   10 ar
  18    9   32 1
  19   10   33 1
  20   11   12 2
  21   11   15 1
  22   12   13 1
  23   12   34 1
  24   13   14 1
  25   14   15 2
  26   14   16 1
  27   16   17 am
  28   16   35 1
  29   17   18 1
  30   17   19 2
  31   18   20 1
  32   18   36 1
  33   18   37 1
  34   20   21 1
  35   20   38 1
  36   20   39 1
  37   21   22 1
  38   21   40 1
  39   21   41 1
  40   22   23 1
  41   23   24 1
  42   24   25 1
  43   24   42 1
  44   24   43 1
  45   25   26 1
  46   25   44 1
  47   25   45 1
  48   26   46 1
  49   26   47 1

#	End of record

