#	Name: ASD01884955
#	Creating user name:	WinNT
#	Creation time:	15. 06. 2019 19:49

#	Modifying user name:	WinNT
#	Modification time:	15. 06. 2019 19:49

#	Program:	/corina/corina34_cracker 3.40 0067  02.08.2006

@<TRIPOS>MOLECULE
ASD01884955
  43   46    0    0    0
SMALL
NO_CHARGES


@<TRIPOS>ATOM
   1 C1             0.0394     1.4359    -0.2847 C.ar    
   2 C2             0.1455     0.1521    -0.7776 C.ar    
   3 C3            -0.9333    -0.4281    -1.4455 C.ar    
   4 C4            -2.1157     0.2925    -1.6125 C.ar    
   5 C5            -2.2155     1.5758    -1.1173 C.ar    
   6 C6            -1.1426     2.1490    -0.4484 C.ar    
   7 C7            -0.8230    -1.8066    -1.9768 C.2     
   8 C8            -1.6140    -2.8186    -1.4633 C.2     
   9 C9             0.0894    -2.1004    -3.0194 C.2     
  10 C10            0.1879    -3.3534    -3.5010 C.2     
  11 N11           -0.5848    -4.3601    -2.9966 N.pl3   
  12 C12           -1.4859    -4.1168    -1.9886 C.2     
  13 Cl13          -2.7472    -2.4911    -0.1896 Cl      
  14 C14           -0.6952    -5.6870    -3.2814 C.2     
  15 N15           -1.6025    -6.1872    -2.4828 N.2     
  16 N16           -2.0771    -5.2698    -1.7155 N.2     
  17 C17            0.0851    -6.4416    -4.3267 C.3     
  18 O18           -1.2445     3.4134     0.0385 O.3     
  19 C19           -2.4461     4.0374    -0.0556 C.ar    
  20 Cl20           1.3805     2.1592     0.5472 Cl      
  21 C21           -3.3980     3.9099     0.9530 C.ar    
  22 C22           -4.6075     4.5606     0.8201 C.ar    
  23 N23           -4.8666     5.2952    -0.2450 N.ar    
  24 C24           -3.9906     5.4402    -1.2214 C.ar    
  25 C25           -2.7566     4.8267    -1.1608 C.ar    
  26 C26           -4.3407     6.2911    -2.4149 C.3     
  27 C27            1.3707    -6.9912    -3.7054 C.3     
  28 F28            1.0481    -7.8531    -2.6517 F       
  29 F29            2.0951    -7.6918    -4.6758 F       
  30 F30            2.1446    -5.9313    -3.2206 F       
  31 H31            1.0626    -0.4032    -0.6470 H       
  32 H32           -2.9523    -0.1539    -2.1294 H       
  33 H33           -3.1310     2.1340    -1.2464 H       
  34 H34            0.7081    -1.3161    -3.4298 H       
  35 H35            0.8867    -3.5653    -4.2967 H       
  36 H36           -0.5178    -7.2674    -4.7044 H       
  37 H37            0.3365    -5.7701    -5.1476 H       
  38 H38           -3.1925     3.3096     1.8270 H       
  39 H39           -5.3515     4.4672     1.5973 H       
  40 H40           -2.0441     4.9498    -1.9630 H       
  41 H41           -4.0344     7.3207    -2.2295 H       
  42 H42           -3.8238     5.9113    -3.2961 H       
  43 H43           -5.4173     6.2569    -2.5822 H       
@<TRIPOS>BOND
   1    1    2 ar
   2    1   20 1
   3    1    6 ar
   4    2    3 ar
   5    2   31 1
   6    3    4 ar
   7    3    7 1
   8    4    5 ar
   9    4   32 1
  10    5    6 ar
  11    5   33 1
  12    6   18 1
  13    7    8 2
  14    7    9 1
  15    8   13 1
  16    8   12 1
  17    9   10 2
  18    9   34 1
  19   10   11 1
  20   10   35 1
  21   11   12 1
  22   11   14 1
  23   12   16 2
  24   14   15 2
  25   14   17 1
  26   15   16 1
  27   17   27 1
  28   17   36 1
  29   17   37 1
  30   18   19 1
  31   19   21 ar
  32   19   25 ar
  33   21   22 ar
  34   21   38 1
  35   22   23 ar
  36   22   39 1
  37   23   24 ar
  38   24   25 ar
  39   24   26 1
  40   25   40 1
  41   26   41 1
  42   26   42 1
  43   26   43 1
  44   27   28 1
  45   27   29 1
  46   27   30 1

#	End of record

