#	Name: ASD01882283
#	Creating user name:	WinNT
#	Creation time:	15. 06. 2019 19:44

#	Modifying user name:	WinNT
#	Modification time:	15. 06. 2019 19:44

#	Program:	/corina/corina34_cracker 3.40 0067  02.08.2006

@<TRIPOS>MOLECULE
ASD01882283
  56   58    0    0    0
SMALL
NO_CHARGES


@<TRIPOS>ATOM
   1 C1             0.3104     0.8280    -1.0676 C.ar    
   2 C2             0.1097    -0.1533    -0.1139 C.ar    
   3 C3             0.9868    -0.2827     0.9482 C.ar    
   4 C4             2.0673     0.5679     1.0618 C.ar    
   5 C5             2.2746     1.5588     0.1035 C.ar    
   6 C6             1.3881     1.6843    -0.9644 C.ar    
   7 C7             3.4339     2.4765     0.2204 C.ar    
   8 C8             4.6993     1.9545     0.4821 C.ar    
   9 C9             5.7773     2.8162     0.5896 C.ar    
  10 C10            4.2573     4.6353     0.1643 C.ar    
  11 N11            3.2522     3.7820     0.0688 N.ar    
  12 N12            4.3385     6.0183     0.0605 N.am    
  13 C13            5.5519     4.1773     0.4308 C.ar    
  14 N14            6.3773     5.2966     0.4716 N.am    
  15 C15            5.6197     6.3867     0.2457 C.2     
  16 C16            0.7613    -1.3545     1.9834 C.3     
  17 O17            1.2696    -0.9136     3.2441 O.3     
  18 C18           -0.7374    -1.6359     2.1081 C.3     
  19 C19            1.4869    -2.6332     1.5600 C.3     
  20 C20            1.6055     2.7531    -2.0044 C.3     
  21 C21            3.2176     6.9237    -0.2041 C.3     
  22 C22            7.8213     5.2904     0.7186 C.3     
  23 C23            8.5657     5.1616    -0.6118 C.3     
  24 C24            8.2076     6.3449    -1.5132 C.3     
  25 C25           10.0738     5.1552    -0.3538 C.3     
  26 C26            8.1602     3.8561    -1.2989 C.3     
  27 O27            6.0304     7.5317     0.2174 O.2     
  28 H28           -0.3748     0.9217    -1.8971 H       
  29 H29           -0.7350    -0.8208    -0.1984 H       
  30 H30            2.7509     0.4665     1.8917 H       
  31 H31            4.8372     0.8899     0.6001 H       
  32 H32            6.7689     2.4393     0.7922 H       
  33 H33            2.2163    -0.7162     3.2392 H       
  34 H34           -1.1251    -1.9722     1.1465 H       
  35 H35           -0.9005    -2.4111     2.8568 H       
  36 H36           -1.2543    -0.7249     2.4097 H       
  37 H37            2.5546    -2.4327     1.4712 H       
  38 H38            1.3238    -3.4084     2.3087 H       
  39 H39            1.0991    -2.9695     0.5984 H       
  40 H40            1.1706     3.6907    -1.6582 H       
  41 H41            2.6745     2.8874    -2.1694 H       
  42 H42            1.1285     2.4541    -2.9378 H       
  43 H43            2.7705     7.2341     0.7403 H       
  44 H44            3.5782     7.8011    -0.7411 H       
  45 H45            2.4702     6.4097    -0.8084 H       
  46 H46            8.1102     6.2205     1.2081 H       
  47 H47            8.0764     4.4474     1.3608 H       
  48 H48            8.4965     7.2750    -1.0238 H       
  49 H49            8.7380     6.2532    -2.4611 H       
  50 H50            7.1332     6.3495    -1.6970 H       
  51 H51           10.3290     4.3122     0.2883 H       
  52 H52           10.6042     5.0634    -1.3017 H       
  53 H53           10.3627     6.0853     0.1356 H       
  54 H54            7.0859     3.8607    -1.4826 H       
  55 H55            8.6906     3.7644    -2.2467 H       
  56 H56            8.4154     3.0131    -0.6567 H       
@<TRIPOS>BOND
   1    1    2 ar
   2    1    6 ar
   3    1   28 1
   4    2    3 ar
   5    2   29 1
   6    3    4 ar
   7    3   16 1
   8    4    5 ar
   9    4   30 1
  10    5    6 ar
  11    5    7 1
  12    6   20 1
  13    7    8 ar
  14    7   11 ar
  15    8    9 ar
  16    8   31 1
  17    9   13 ar
  18    9   32 1
  19   10   11 ar
  20   10   12 1
  21   10   13 ar
  22   12   15 am
  23   12   21 1
  24   13   14 1
  25   14   15 am
  26   14   22 1
  27   15   27 2
  28   16   17 1
  29   16   18 1
  30   16   19 1
  31   17   33 1
  32   18   34 1
  33   18   35 1
  34   18   36 1
  35   19   37 1
  36   19   38 1
  37   19   39 1
  38   20   40 1
  39   20   41 1
  40   20   42 1
  41   21   43 1
  42   21   44 1
  43   21   45 1
  44   22   23 1
  45   22   46 1
  46   22   47 1
  47   23   24 1
  48   23   25 1
  49   23   26 1
  50   24   48 1
  51   24   49 1
  52   24   50 1
  53   25   51 1
  54   25   52 1
  55   25   53 1
  56   26   54 1
  57   26   55 1
  58   26   56 1

#	End of record

