#	Name: ASD01840304
#	Creating user name:	WinNT
#	Creation time:	15. 06. 2019 19:37

#	Modifying user name:	WinNT
#	Modification time:	15. 06. 2019 19:37

#	Program:	/corina/corina34_cracker 3.40 0067  02.08.2006

@<TRIPOS>MOLECULE
ASD01840304
  58   61    0    0    0
SMALL
NO_CHARGES


@<TRIPOS>ATOM
   1 C1             0.9683     1.1669    -1.4495 C.3     
   2 N2             0.6905    -0.2066    -1.0224 N.am    
   3 C3            -0.5914    -0.9051    -1.1703 C.3     
   4 H4            -0.8587    -0.9782    -2.2244 H       
   5 C5            -1.6862    -0.1631    -0.4010 C.3     
   6 O6            -1.9178     1.1088    -1.0098 O.3     
   7 C7            -0.3906    -2.2838    -0.5892 C.ar    
   8 N8            -1.1826    -3.3232    -0.4526 N.ar    
   9 C9            -0.7578    -4.4499     0.1057 C.ar    
  10 N10           -1.6270    -5.5206     0.2293 N.3     
  11 C11           -1.6080    -6.3561    -0.9782 C.3     
  12 C12           -2.4654    -7.6031    -0.7509 C.3     
  13 C13           -3.8997    -7.1778    -0.4245 C.3     
  14 H14           -4.3207    -6.6362    -1.2715 H       
  15 O15           -4.6922    -8.3364    -0.1569 O.3     
  16 C16           -6.0715    -8.1891    -0.5000 C.3     
  17 C17           -6.8195    -9.4830    -0.1726 C.3     
  18 C18           -6.0227   -10.7740    -0.3704 C.3     
  19 C19           -7.8285    -9.4442     0.9769 C.3     
  20 C20           -8.3198    -9.5262    -0.4697 C.3     
  21 C21           -3.8863    -6.2695     0.8082 C.3     
  22 H22           -4.8998    -5.9289     1.0202 H       
  23 F23           -3.3931    -6.9809     1.9072 F       
  24 C24           -2.9877    -5.0612     0.5357 C.3     
  25 C25            0.5511    -4.5704     0.5687 C.ar    
  26 C26            1.0183    -5.8570     1.1993 C.3     
  27 C27            1.4093    -3.5105     0.4456 C.ar    
  28 C28            2.8308    -3.6079     0.9365 C.3     
  29 C29            0.9340    -2.3324    -0.1475 C.ar    
  30 C30            1.5696    -1.0373    -0.4356 C.2     
  31 O31            2.7243    -0.7573    -0.1775 O.2     
  32 H32            2.0036     1.4171    -1.2178 H       
  33 H33            0.8052     1.2534    -2.5237 H       
  34 H34            0.3027     1.8522    -0.9246 H       
  35 H35           -2.6053    -0.7487    -0.4217 H       
  36 H36           -1.3703    -0.0192     0.6323 H       
  37 H37           -2.6014     1.6352    -0.5732 H       
  38 H38           -2.0077    -5.7887    -1.8187 H       
  39 H39           -0.5828    -6.6551    -1.1968 H       
  40 H40           -2.4637    -8.2153    -1.6528 H       
  41 H41           -2.0582    -8.1781     0.0807 H       
  42 H42           -6.5020    -7.3662     0.0706 H       
  43 H43           -6.1603    -7.9778    -1.5657 H       
  44 H44           -4.9763   -10.5969    -0.1218 H       
  45 H45           -6.4239   -11.5518     0.2793 H       
  46 H46           -6.1001   -11.0932    -1.4098 H       
  47 H47           -7.9247   -10.3385     1.5926 H       
  48 H48           -7.9594    -8.4968     1.4999 H       
  49 H49           -8.7739    -8.6329    -0.8985 H       
  50 H50           -8.7391   -10.4746    -0.8058 H       
  51 H51           -2.9647    -4.4197     1.4166 H       
  52 H52           -3.3810    -4.4999    -0.3119 H       
  53 H53            1.5152    -6.4705     0.4478 H       
  54 H54            1.7167    -5.6336     2.0057 H       
  55 H55            0.1609    -6.3973     1.6004 H       
  56 H56            3.4682    -3.9771     0.1330 H       
  57 H57            3.1753    -2.6224     1.2499 H       
  58 H58            2.8771    -4.2948     1.7816 H       
@<TRIPOS>BOND
   1    1    2 1
   2    1   32 1
   3    1   33 1
   4    1   34 1
   5    2   30 am
   6    2    3 1
   7    3    4 1
   8    3    5 1
   9    3    7 1
  10    5    6 1
  11    5   35 1
  12    5   36 1
  13    6   37 1
  14    7   29 ar
  15    7    8 ar
  16    8    9 ar
  17    9   10 1
  18    9   25 ar
  19   10   24 1
  20   10   11 1
  21   11   12 1
  22   11   38 1
  23   11   39 1
  24   12   13 1
  25   12   40 1
  26   12   41 1
  27   13   14 1
  28   13   15 1
  29   13   21 1
  30   15   16 1
  31   16   17 1
  32   16   42 1
  33   16   43 1
  34   17   20 1
  35   17   18 1
  36   17   19 1
  37   18   44 1
  38   18   45 1
  39   18   46 1
  40   19   20 1
  41   19   47 1
  42   19   48 1
  43   20   49 1
  44   20   50 1
  45   21   22 1
  46   21   23 1
  47   21   24 1
  48   24   51 1
  49   24   52 1
  50   25   26 1
  51   25   27 ar
  52   26   53 1
  53   26   54 1
  54   26   55 1
  55   27   28 1
  56   27   29 ar
  57   28   56 1
  58   28   57 1
  59   28   58 1
  60   29   30 1
  61   30   31 2

#	End of record

