#	Name: ASD01810283
#	Creating user name:	WinNT
#	Creation time:	15. 06. 2019 19:24

#	Modifying user name:	WinNT
#	Modification time:	15. 06. 2019 19:24

#	Program:	/corina/corina34_cracker 3.40 0067  02.08.2006

@<TRIPOS>MOLECULE
ASD01810283
  47   51    0    0    0
SMALL
NO_CHARGES


@<TRIPOS>ATOM
   1 C1             1.1606     2.2507    -0.5162 C.ar    
   2 C2             0.7834     0.9166    -0.5007 C.ar    
   3 C3             1.7247    -0.0809    -0.3479 C.ar    
   4 C4             3.0718     0.2478    -0.2073 C.ar    
   5 C5             3.4527     1.6004    -0.2237 C.ar    
   6 C6             2.4890     2.6001    -0.3788 C.ar    
   7 N7             4.0215    -0.7402    -0.0534 N.pl3   
   8 C8             5.3267    -0.4761     0.0860 C.2     
   9 C9             5.8203     0.8129     0.0855 C.2     
  10 C10            4.8802     1.9345    -0.0742 C.2     
  11 O11            5.2659     3.0904    -0.0812 O.2     
  12 C12            3.5837    -2.1382    -0.0416 C.3     
  13 C13            3.4399    -2.6316    -1.4583 C.ar    
  14 C14            4.5235    -2.5799    -2.3202 C.ar    
  15 C15            4.3970    -3.0316    -3.6202 C.ar    
  16 C16            3.1752    -3.5397    -4.0626 C.ar    
  17 C17            2.0880    -3.5884    -3.1880 C.ar    
  18 C18            2.2281    -3.1395    -1.8912 C.ar    
  19 C19            3.0322    -4.0241    -5.4518 C.2     
  20 C20            7.2602     1.0616     0.2417 C.2     
  21 O21            7.7302     2.3251     0.2396 O.3     
  22 O22            8.0276     0.1279     0.3729 O.2     
  23 F23            5.7052    -2.0870    -1.8893 F       
  24 F24            2.8550     3.9005    -0.3949 F       
  25 F25            1.3404    -1.3760    -0.3340 F       
  26 C26            1.8970    -4.5351    -5.9850 C.2     
  27 C27            2.2188    -4.8790    -7.3720 C.ar    
  28 C28            3.5693    -4.5281    -7.5464 C.ar    
  29 O29            4.0104    -4.0180    -6.3787 O.3     
  30 C30            1.4967    -5.4325    -8.4303 C.ar    
  31 C31            2.1081    -5.6319    -9.6367 C.ar    
  32 C32            3.4404    -5.2876    -9.8146 C.ar    
  33 C33            4.1700    -4.7390    -8.7811 C.ar    
  34 H34            0.4125     3.0196    -0.6408 H       
  35 H35           -0.2588     0.6552    -0.6091 H       
  36 H36            6.0163    -1.2990     0.2032 H       
  37 H37            4.3221    -2.7458     0.4816 H       
  38 H38            2.6235    -2.2139     0.4687 H       
  39 H39            5.2416    -2.9910    -4.2921 H       
  40 H40            1.1400    -3.9807    -3.5251 H       
  41 H41            1.3873    -3.1774    -1.2144 H       
  42 H42            8.6846     2.4387     0.3455 H       
  43 H43            0.9468    -4.6636    -5.4879 H       
  44 H44            0.4595    -5.7025    -8.2967 H       
  45 H45            1.5506    -6.0605   -10.4564 H       
  46 H46            3.9110    -5.4509   -10.7728 H       
  47 H47            5.2064    -4.4748    -8.9310 H       
@<TRIPOS>BOND
   1    1    2 ar
   2    1    6 ar
   3    1   34 1
   4    2    3 ar
   5    2   35 1
   6    3    4 ar
   7    3   25 1
   8    4    5 ar
   9    4    7 1
  10    5    6 ar
  11    5   10 1
  12    6   24 1
  13    7    8 1
  14    7   12 1
  15    8    9 2
  16    8   36 1
  17    9   10 1
  18    9   20 1
  19   10   11 2
  20   12   13 1
  21   12   37 1
  22   12   38 1
  23   13   14 ar
  24   13   18 ar
  25   14   15 ar
  26   14   23 1
  27   15   16 ar
  28   15   39 1
  29   16   17 ar
  30   16   19 1
  31   17   18 ar
  32   17   40 1
  33   18   41 1
  34   19   26 2
  35   19   29 1
  36   20   21 1
  37   20   22 2
  38   21   42 1
  39   26   27 1
  40   26   43 1
  41   27   28 ar
  42   27   30 ar
  43   28   29 1
  44   28   33 ar
  45   30   31 ar
  46   30   44 1
  47   31   32 ar
  48   31   45 1
  49   32   33 ar
  50   32   46 1
  51   33   47 1

#	End of record

