#	Name: ASD09610037
#	Creating user name:	WinNT
#	Creation time:	15. 06. 2019 21:22

#	Modifying user name:	WinNT
#	Modification time:	15. 06. 2019 21:22

#	Program:	/corina/corina34_cracker 3.40 0067  02.08.2006

@<TRIPOS>MOLECULE
ASD09610037
  38   39    0    0    0
SMALL
NO_CHARGES


@<TRIPOS>ATOM
   1 C1            -0.0156     1.2956     0.0092 C.2     
   2 N2             0.0021    -0.0041     0.0020 N.2     
   3 C3             1.1603    -0.6980    -0.0128 C.2     
   4 C4             2.3713    -0.0124    -0.0207 C.2     
   5 C5             2.3286     1.4164    -0.0127 C.2     
   6 N6             1.1280     2.0281     0.0022 N.am    
   7 C7             3.5086    -0.9110    -0.0360 C.2     
   8 C8             3.1991    -2.1959    -0.0396 C.2     
   9 S9             1.4615    -2.4307    -0.0244 S.3     
  10 O10            3.3582     2.0689    -0.0194 O.2     
  11 Cl11           4.3623    -3.4844    -0.0583 Cl      
  12 C12            1.0560     3.4913     0.0108 C.3     
  13 C13            1.0447     3.9929     1.4562 C.3     
  14 C14            0.9694     5.5210     1.4652 C.3     
  15 C15            0.9581     6.0226     2.9106 C.3     
  16 C16           -1.3425     2.0098     0.0193 C.3     
  17 C17           -2.4753     0.9813     0.0190 C.3     
  18 C18           -3.8225     1.7065     0.0293 C.3     
  19 C19           -4.9552     0.6780     0.0290 C.3     
  20 H20            4.5293    -0.5581    -0.0442 H       
  21 H21            1.9220     3.9008    -0.5092 H       
  22 H22            0.1443     3.8131    -0.4926 H       
  23 H23            0.1786     3.5834     1.9761 H       
  24 H24            1.9563     3.6710     1.9596 H       
  25 H25            1.8355     5.9305     0.9452 H       
  26 H26            0.0578     5.8428     0.9618 H       
  27 H27            1.8698     5.7007     3.4140 H       
  28 H28            0.9045     7.1112     2.9170 H       
  29 H29            0.0920     5.6131     3.4305 H       
  30 H30           -1.4147     2.6296     0.9130 H       
  31 H31           -1.4231     2.6393    -0.8669 H       
  32 H32           -2.4031     0.3615    -0.8747 H       
  33 H33           -2.3947     0.3518     0.9052 H       
  34 H34           -3.8947     2.3263     0.9230 H       
  35 H35           -3.9031     2.3359    -0.8569 H       
  36 H36           -4.8830     0.0582    -0.8647 H       
  37 H37           -4.8747     0.0485     0.9152 H       
  38 H38           -5.9150     1.1946     0.0363 H       
@<TRIPOS>BOND
   1    1    2 2
   2    1    6 1
   3    1   16 1
   4    2    3 1
   5    3    4 2
   6    3    9 1
   7    4    5 1
   8    4    7 1
   9    5    6 am
  10    5   10 2
  11    6   12 1
  12    7    8 2
  13    7   20 1
  14    8    9 1
  15    8   11 1
  16   12   13 1
  17   12   21 1
  18   12   22 1
  19   13   14 1
  20   13   23 1
  21   13   24 1
  22   14   15 1
  23   14   25 1
  24   14   26 1
  25   15   27 1
  26   15   28 1
  27   15   29 1
  28   16   17 1
  29   16   30 1
  30   16   31 1
  31   17   18 1
  32   17   32 1
  33   17   33 1
  34   18   19 1
  35   18   34 1
  36   18   35 1
  37   19   36 1
  38   19   37 1
  39   19   38 1

#	End of record

