#	Name: ASD01850004
#	Creating user name:	WinNT
#	Creation time:	15. 06. 2019 19:38

#	Modifying user name:	WinNT
#	Modification time:	15. 06. 2019 19:38

#	Program:	/corina/corina34_cracker 3.40 0067  02.08.2006

@<TRIPOS>MOLECULE
ASD01850004
  49   53    0    0    0
SMALL
NO_CHARGES


@<TRIPOS>ATOM
   1 O1             0.0439     0.0197    -0.2241 O.2     
   2 C2            -0.0144     1.2117     0.0087 C.2     
   3 N3             1.1163     1.9116     0.2278 N.am    
   4 C4             1.2300     3.3745     0.4082 C.3     
   5 C5             2.7441     3.6559     0.5627 C.3     
   6 N6             3.3676     2.4850    -0.0773 N.am    
   7 C7             2.4765     1.3704     0.3407 C.3     
   8 C8             2.7780     0.9359     1.7518 C.ar    
   9 C9             1.7723     0.4150     2.5444 C.ar    
  10 C10            2.0489     0.0164     3.8388 C.ar    
  11 C11            3.3312     0.1383     4.3405 C.ar    
  12 C12            4.3371     0.6584     3.5477 C.ar    
  13 C13            4.0614     1.0529     2.2518 C.ar    
  14 C14            2.7324     0.2689    -0.6489 C.ar    
  15 C15            2.1059    -0.9227    -0.9292 C.ar    
  16 C16            2.6024    -1.7507    -1.9222 C.ar    
  17 C17            3.7289    -1.3835    -2.6363 C.ar    
  18 C18            4.3633    -0.1878    -2.3674 C.ar    
  19 C19            3.8682     0.6534    -1.3727 C.ar    
  20 C20            4.3201     1.9696    -0.8558 C.2     
  21 O21            5.3889     2.4923    -1.1048 O.2     
  22 C22           -1.3231     1.8932     0.0454 C.ar    
  23 C23           -2.5026     1.1509    -0.0561 C.ar    
  24 C24           -3.7216     1.7905    -0.0210 C.ar    
  25 C25           -3.7797     3.1726     0.1147 C.ar    
  26 C26           -2.6087     3.9146     0.2155 C.ar    
  27 C27           -1.3860     3.2819     0.1875 C.ar    
  28 O28           -4.9830     3.7993     0.1485 O.3     
  29 C29           -4.9702     5.2212     0.2898 C.3     
  30 F30           -4.2799     5.7905    -0.7857 F       
  31 F31           -6.2845     5.7001     0.3062 F       
  32 F32           -4.3335     5.5651     1.4871 F       
  33 H33            0.8372     3.8939    -0.4659 H       
  34 H34            0.6951     3.6866     1.3051 H       
  35 H35            3.0207     4.5725     0.0416 H       
  36 H36            3.0201     3.7119     1.6157 H       
  37 H37            0.7705     0.3197     2.1524 H       
  38 H38            1.2630    -0.3899     4.4583 H       
  39 H39            3.5471    -0.1724     5.3521 H       
  40 H40            5.3388     0.7539     3.9397 H       
  41 H41            4.8473     1.4592     1.6323 H       
  42 H42            1.2262    -1.2133    -0.3742 H       
  43 H43            2.1086    -2.6864    -2.1395 H       
  44 H44            4.1135    -2.0352    -3.4068 H       
  45 H45            5.2425     0.0956    -2.9270 H       
  46 H46           -2.4583     0.0771    -0.1623 H       
  47 H47           -4.6337     1.2175    -0.0993 H       
  48 H48           -2.6580     4.9884     0.3201 H       
  49 H49           -0.4765     3.8591     0.2659 H       
@<TRIPOS>BOND
   1    1    2 2
   2    2    3 am
   3    2   22 1
   4    3    4 1
   5    3    7 1
   6    4    5 1
   7    4   33 1
   8    4   34 1
   9    5    6 1
  10    5   35 1
  11    5   36 1
  12    6    7 1
  13    6   20 am
  14    7    8 1
  15    7   14 1
  16    8    9 ar
  17    8   13 ar
  18    9   10 ar
  19    9   37 1
  20   10   11 ar
  21   10   38 1
  22   11   12 ar
  23   11   39 1
  24   12   13 ar
  25   12   40 1
  26   13   41 1
  27   14   15 ar
  28   14   19 ar
  29   15   16 ar
  30   15   42 1
  31   16   17 ar
  32   16   43 1
  33   17   18 ar
  34   17   44 1
  35   18   19 ar
  36   18   45 1
  37   19   20 1
  38   20   21 2
  39   22   23 ar
  40   22   27 ar
  41   23   24 ar
  42   23   46 1
  43   24   25 ar
  44   24   47 1
  45   25   26 ar
  46   25   28 1
  47   26   27 ar
  48   26   48 1
  49   27   49 1
  50   28   29 1
  51   29   30 1
  52   29   31 1
  53   29   32 1

#	End of record

