#	Name: ASD01028131
#	Creating user name:	WinNT
#	Creation time:	15. 06. 2019 18:56

#	Modifying user name:	WinNT
#	Modification time:	15. 06. 2019 18:56

#	Program:	/corina/corina34_cracker 3.40 0067  02.08.2006

@<TRIPOS>MOLECULE
ASD01028131
  76   80    0    0    0
SMALL
NO_CHARGES


@<TRIPOS>ATOM
   1 C1            -0.1868     2.0370     0.4544 C.ar    
   2 C2            -0.0956     0.6592     0.5140 C.ar    
   3 C3             0.8840    -0.0048    -0.2117 C.ar    
   4 C4             1.7742     0.7188    -0.9992 C.ar    
   5 C5             1.6779     2.1047    -1.0554 C.ar    
   6 C6             0.6956     2.7591    -0.3268 C.ar    
   7 O7             2.8094     0.3196    -1.7958 O.3     
   8 C8             3.0852     1.4401    -2.6570 C.3     
   9 O9             2.6524     2.5770    -1.8868 O.3     
  10 N10            0.9765    -1.4006    -0.1508 N.pl3   
  11 C11            2.2132    -2.0071    -0.0650 C.ar    
  12 N12            3.3213    -1.2836     0.0340 N.ar    
  13 C13            2.3330    -3.4169    -0.0743 C.ar    
  14 C14            3.6308    -3.9782     0.0166 C.ar    
  15 N15            4.6853    -3.1530     0.1073 N.ar    
  16 C16            4.5132    -1.8523     0.1169 C.ar    
  17 C17            1.2151    -4.2549    -0.1695 C.ar    
  18 C18            1.3842    -5.6101    -0.1739 C.ar    
  19 C19            2.6654    -6.1727    -0.0838 C.ar    
  20 C20            3.7807    -5.3706     0.0102 C.ar    
  21 O21            0.2979    -6.4229    -0.2664 O.3     
  22 C22           -0.9802    -5.7900    -0.3549 C.3     
  23 O23            2.8078    -7.5237    -0.0894 O.3     
  24 C24            4.1385    -8.0361     0.0050 C.3     
  25 C25           -1.0602    -0.1229     1.3678 C.3     
  26 N26           -0.4124    -0.4795     2.6371 N.3     
  27 C27           -0.1289     0.7188     3.4383 C.3     
  28 C28           -1.2292    -1.4376     3.3940 C.3     
  29 C29           -0.4210    -1.9738     4.5773 C.3     
  30 N30           -1.2355    -2.9293     5.3321 N.am    
  31 S31           -0.5129    -3.9807     6.3879 S.o2    
  32 O32           -1.5594    -4.7408     6.9765 O.2     
  33 O33            0.5752    -4.5680     5.6878 O.2     
  34 C34            0.1915    -3.0167     7.6838 C.ar    
  35 C35            1.5610    -3.0080     7.8728 C.ar    
  36 C36            2.1135    -2.2518     8.8893 C.ar    
  37 C37            1.2967    -1.5039     9.7169 C.ar    
  38 C38           -0.0723    -1.5120     9.5274 C.ar    
  39 C39           -0.6247    -2.2649     8.5078 C.ar    
  40 N40           -2.0909    -2.2736     8.3049 N.pl3   
  41 O41           -2.8190    -1.7065     9.0997 O.2     
  42 O42           -2.5692    -2.8479     7.3431 O.2     
  43 C43           -2.0722    -6.8573    -0.4510 C.3     
  44 C44           -3.4407    -6.1797    -0.5457 C.3     
  45 Br45          -4.8439    -7.5511    -0.6692 Br      
  46 H46           -0.9528     2.5507     1.0164 H       
  47 H47            0.6199     3.8356    -0.3703 H       
  48 H48            4.1521     1.5057    -2.8705 H       
  49 H49            2.5125     1.3630    -3.5813 H       
  50 H50            0.1714    -1.9412    -0.1690 H       
  51 H51            5.3837    -1.2173     0.1907 H       
  52 H52            0.2240    -3.8315    -0.2386 H       
  53 H53            4.7640    -5.8122     0.0788 H       
  54 H54           -1.1457    -5.1797     0.5330 H       
  55 H55           -1.0117    -5.1571    -1.2418 H       
  56 H56            4.7272    -7.6761    -0.8387 H       
  57 H57            4.5930    -7.6975     0.9361 H       
  58 H58            4.1102    -9.1256    -0.0103 H       
  59 H59           -1.9428     0.4844     1.5683 H       
  60 H60           -1.3558    -1.0313     0.8430 H       
  61 H61           -1.0614     1.2394     3.6559 H       
  62 H62            0.3505     0.4262     4.3725 H       
  63 H63            0.5348     1.3798     2.8809 H       
  64 H64           -2.1258    -0.9393     3.7625 H       
  65 H65           -1.5144    -2.2649     2.7441 H       
  66 H66            0.4757    -2.4721     4.2088 H       
  67 H67           -0.1358    -1.1465     5.2272 H       
  68 H68           -2.1981    -2.9462     5.2134 H       
  69 H69            2.1991    -3.5922     7.2263 H       
  70 H70            3.1833    -2.2455     9.0373 H       
  71 H71            1.7284    -0.9137    10.5116 H       
  72 H72           -0.7104    -0.9281    10.1741 H       
  73 H73           -1.9067    -7.4675    -1.3388 H       
  74 H74           -2.0408    -7.4901     0.4359 H       
  75 H75           -3.6063    -5.5694     0.3421 H       
  76 H76           -3.4722    -5.5468    -1.4326 H       
@<TRIPOS>BOND
   1    1    2 ar
   2    1    6 ar
   3    1   46 1
   4    2    3 ar
   5    2   25 1
   6    3    4 ar
   7    3   10 1
   8    4    5 ar
   9    4    7 1
  10    5    6 ar
  11    5    9 1
  12    6   47 1
  13    7    8 1
  14    8    9 1
  15    8   48 1
  16    8   49 1
  17   10   11 1
  18   10   50 1
  19   11   12 ar
  20   11   13 ar
  21   12   16 ar
  22   13   14 ar
  23   13   17 ar
  24   14   15 ar
  25   14   20 ar
  26   15   16 ar
  27   16   51 1
  28   17   18 ar
  29   17   52 1
  30   18   19 ar
  31   18   21 1
  32   19   20 ar
  33   19   23 1
  34   20   53 1
  35   21   22 1
  36   22   43 1
  37   22   54 1
  38   22   55 1
  39   23   24 1
  40   24   56 1
  41   24   57 1
  42   24   58 1
  43   25   26 1
  44   25   59 1
  45   25   60 1
  46   26   27 1
  47   26   28 1
  48   27   61 1
  49   27   62 1
  50   27   63 1
  51   28   29 1
  52   28   64 1
  53   28   65 1
  54   29   30 1
  55   29   66 1
  56   29   67 1
  57   30   31 am
  58   30   68 1
  59   31   32 2
  60   31   33 2
  61   31   34 1
  62   34   35 ar
  63   34   39 ar
  64   35   36 ar
  65   35   69 1
  66   36   37 ar
  67   36   70 1
  68   37   38 ar
  69   37   71 1
  70   38   39 ar
  71   38   72 1
  72   39   40 1
  73   40   41 2
  74   40   42 2
  75   43   44 1
  76   43   73 1
  77   43   74 1
  78   44   45 1
  79   44   75 1
  80   44   76 1

#	End of record

