#	Name: ASD01230699
#	Creating user name:	WinNT
#	Creation time:	15. 06. 2019 19:14

#	Modifying user name:	WinNT
#	Modification time:	15. 06. 2019 19:14

#	Program:	/corina/corina34_cracker 3.40 0067  02.08.2006

@<TRIPOS>MOLECULE
ASD01230699
  42   44    0    0    0
SMALL
NO_CHARGES


@<TRIPOS>ATOM
   1 C1            -0.6846     1.9966     0.7218 C.ar    
   2 C2            -0.4737     0.6450     0.4137 C.ar    
   3 C3             0.8303     0.1986     0.2010 C.ar    
   4 C4             1.8657     1.1147     0.3040 C.ar    
   5 C5             1.5802     2.4308     0.6113 C.ar    
   6 N6             0.3381     2.8314     0.8085 N.ar    
   7 N7            -1.9749     2.4629     0.9315 N.pl3   
   8 C8            -1.6176    -0.2937     0.3161 C.ar    
   9 C9            -1.7499    -1.1218    -0.7972 C.ar    
  10 C10           -2.8165    -1.9934    -0.8827 C.ar    
  11 C11           -3.7532    -2.0461     0.1338 C.ar    
  12 C12           -3.6272    -1.2262     1.2408 C.ar    
  13 C13           -2.5613    -0.3552     1.3399 C.ar    
  14 C14           -4.3962    -4.4391     0.0386 C.3     
  15 C15           -4.9157    -3.0000     0.0346 C.3     
  16 C16           -5.8497    -2.7916     1.2283 C.3     
  17 C17           -5.6697    -2.7416    -1.2444 C.ar    
  18 C18           -5.8774    -3.7703    -2.1442 C.ar    
  19 C19           -6.5690    -3.5333    -3.3173 C.ar    
  20 C20           -7.0534    -2.2677    -3.5905 C.ar    
  21 C21           -6.8466    -1.2393    -2.6903 C.ar    
  22 C22           -6.1587    -1.4773    -1.5151 C.ar    
  23 H23            1.0288    -0.8358    -0.0378 H       
  24 H24            2.8872     0.8019     0.1457 H       
  25 H25            2.3870     3.1442     0.6915 H       
  26 H26           -2.7273     1.8543     0.8647 H       
  27 H27           -2.1242     3.3972     1.1448 H       
  28 H28           -1.0193    -1.0813    -1.5916 H       
  29 H29           -2.9202    -2.6353    -1.7450 H       
  30 H30           -4.3619    -1.2711     2.0311 H       
  31 H31           -2.4613     0.2810     2.2069 H       
  32 H32           -3.8508    -4.6260     0.9636 H       
  33 H33           -5.2370    -5.1290    -0.0332 H       
  34 H34           -3.7308    -4.5876    -0.8119 H       
  35 H35           -6.2197    -1.7663     1.2255 H       
  36 H36           -6.6905    -3.4815     1.1566 H       
  37 H37           -5.3043    -2.9784     2.1534 H       
  38 H38           -5.4989    -4.7590    -1.9307 H       
  39 H39           -6.7306    -4.3368    -4.0206 H       
  40 H40           -7.5932    -2.0824    -4.5074 H       
  41 H41           -7.2247    -0.2504    -2.9038 H       
  42 H42           -6.0003    -0.6746    -0.8100 H       
@<TRIPOS>BOND
   1    1    2 ar
   2    1    6 ar
   3    1    7 1
   4    2    3 ar
   5    2    8 1
   6    3    4 ar
   7    3   23 1
   8    4    5 ar
   9    4   24 1
  10    5    6 ar
  11    5   25 1
  12    7   26 1
  13    7   27 1
  14    8    9 ar
  15    8   13 ar
  16    9   10 ar
  17    9   28 1
  18   10   11 ar
  19   10   29 1
  20   11   12 ar
  21   11   15 1
  22   12   13 ar
  23   12   30 1
  24   13   31 1
  25   14   15 1
  26   14   32 1
  27   14   33 1
  28   14   34 1
  29   15   16 1
  30   15   17 1
  31   16   35 1
  32   16   36 1
  33   16   37 1
  34   17   18 ar
  35   17   22 ar
  36   18   19 ar
  37   18   38 1
  38   19   20 ar
  39   19   39 1
  40   20   21 ar
  41   20   40 1
  42   21   22 ar
  43   21   41 1
  44   22   42 1

#	End of record

