#	Name: ASD08170064
#	Creating user name:	WinNT
#	Creation time:	15. 06. 2019 21:17

#	Modifying user name:	WinNT
#	Modification time:	15. 06. 2019 21:17

#	Program:	/corina/corina34_cracker 3.40 0067  02.08.2006

@<TRIPOS>MOLECULE
ASD08170064
  98  101    0    0    0
SMALL
NO_CHARGES


@<TRIPOS>ATOM
   1 N1            -2.1184     0.8131     1.1625 N.2     
   2 N2            -1.8970    -0.4045     0.9130 N.2     
   3 C3            -1.1042     1.6245     1.1540 C.2     
   4 S4             0.3101     0.7318     0.7829 S.3     
   5 C5            -0.6676    -0.7320     0.6700 C.2     
   6 C6            -0.1632    -2.1153     0.3486 C.3     
   7 C7            -0.2037    -2.3339    -1.1651 C.3     
   8 C8             0.2679    -3.9569    -3.0052 C.3     
   9 C9             0.7724    -5.3402    -3.3266 C.2     
  10 N10            0.0544    -6.4150    -3.4099 N.2     
  11 S11            2.4456    -5.7850    -3.6644 S.3     
  12 C12            1.9506    -7.4116    -3.8735 C.2     
  13 N13            0.6665    -7.4827    -3.6914 N.2     
  14 N14            2.7846    -8.4784    -4.1904 N.am    
  15 C15            2.2716    -9.7170    -4.3285 C.2     
  16 O16            1.0825    -9.9013    -4.1764 O.2     
  17 C17            3.1754   -10.8730    -4.6719 C.3     
  18 N18           -1.1576     2.9915     1.4043 N.am    
  19 C19           -2.3372     3.5794     1.6861 C.2     
  20 C20           -2.3950     5.0607     1.9573 C.3     
  21 O21           -3.3521     2.9164     1.7214 O.2     
  22 C22            0.3084    -3.7383    -1.4914 C.3     
  23 N23            2.3829   -12.1016    -4.7649 N.am    
  24 N24           -3.7790     5.4526     2.2351 N.am    
  25 C25           -1.5185     5.3924     3.1667 C.3     
  26 C26           -4.6005     5.7893     1.2211 C.2     
  27 O27           -5.8968     6.0587     1.4660 O.3     
  28 O28           -4.1714     5.8498     0.0860 O.2     
  29 C29           -6.7229     6.4143     0.3261 C.3     
  30 C30           -6.7255     5.2625    -0.6810 C.3     
  31 C31           -8.1535     6.6831     0.7972 C.3     
  32 C32           -6.1601     7.6721    -0.3390 C.3     
  33 C33            2.1537   -12.8408    -3.6615 C.2     
  34 O34            2.5329   -12.4465    -2.5765 O.2     
  35 O35            1.5047   -14.0162    -3.7614 O.3     
  36 C36            1.2930   -14.7590    -2.5319 C.3     
  37 C37            0.4655   -13.9137    -1.5615 C.3     
  38 C38            0.5453   -16.0572    -2.8426 C.3     
  39 C39            2.6450   -15.0887    -1.8960 C.3     
  40 C40            3.8593   -10.6045    -6.0139 C.3     
  41 C41            4.7751   -11.7843    -6.3843 C.3     
  42 C42            2.8032   -10.4981    -7.1334 C.3     
  43 C43            3.4764   -11.1701    -8.3558 C.3     
  44 C44            4.2435   -12.3537    -7.7158 C.3     
  45 C45           -1.5602     6.9044     3.4491 C.3     
  46 C46           -2.0699     4.6934     4.4265 C.3     
  47 C47           -1.8353     5.7190     5.5633 C.3     
  48 C48           -2.1354     7.0715     4.8707 C.3     
  49 H49            0.8621    -2.2196     0.7035 H       
  50 H50           -0.7948    -2.8555     0.8397 H       
  51 H51           -1.2290    -2.2296    -1.5200 H       
  52 H52            0.4279    -1.5936    -1.6562 H       
  53 H53            0.8995    -3.2166    -3.4963 H       
  54 H54           -0.7574    -3.8526    -3.3600 H       
  55 H55            3.7356    -8.3310    -4.3121 H       
  56 H56            3.9315   -10.9863    -3.8950 H       
  57 H57           -0.3459     3.5218     1.3761 H       
  58 H58           -2.0316     5.6042     1.0852 H       
  59 H59            1.3338    -3.8426    -1.1366 H       
  60 H60           -0.3231    -4.4786    -1.0003 H       
  61 H61            2.0231   -12.3831    -5.6206 H       
  62 H62           -4.1041     5.4697     3.1489 H       
  63 H63           -0.4922     5.0752     2.9818 H       
  64 H64           -7.1264     4.3665    -0.2072 H       
  65 H65           -7.3456     5.5295    -1.5367 H       
  66 H66           -5.7063     5.0711    -1.0166 H       
  67 H67           -8.1517     7.5037     1.5147 H       
  68 H68           -8.7737     6.9501    -0.0585 H       
  69 H69           -8.5544     5.7871     1.2710 H       
  70 H70           -5.1409     7.4806    -0.6745 H       
  71 H71           -6.7803     7.9391    -1.1947 H       
  72 H72           -6.1583     8.4926     0.3785 H       
  73 H73           -0.4976   -13.6788    -2.0145 H       
  74 H74            0.3066   -14.4712    -0.6385 H       
  75 H75            0.9982   -12.9888    -1.3401 H       
  76 H76            1.1348   -16.6594    -3.5340 H       
  77 H77            0.3864   -16.6148    -1.9196 H       
  78 H78           -0.4178   -15.8223    -3.2956 H       
  79 H79            3.1776   -14.1638    -1.6747 H       
  80 H80            2.4860   -15.6463    -0.9730 H       
  81 H81            3.2344   -15.6909    -2.5874 H       
  82 H82            4.4402    -9.6838    -5.9590 H       
  83 H83            5.8003   -11.4360    -6.5099 H       
  84 H84            4.7323   -12.5481    -5.6079 H       
  85 H85            1.8963   -11.0347    -6.8544 H       
  86 H86            2.5786    -9.4534    -7.3480 H       
  87 H87            2.7265   -11.5312    -9.0597 H       
  88 H88            4.1661   -10.4815    -8.8439 H       
  89 H89            5.0701   -12.6631    -8.3554 H       
  90 H90            3.5693   -13.1900    -7.5309 H       
  91 H91           -0.5540     7.3209     3.4021 H       
  92 H92           -2.2049     7.4019     2.7245 H       
  93 H93           -3.1340     4.4864     4.3131 H       
  94 H94           -1.5201     3.7731     4.6237 H       
  95 H95           -2.5262     5.5459     6.3884 H       
  96 H96           -0.8023     5.6829     5.9090 H       
  97 H97           -1.6335     7.8867     5.3919 H       
  98 H98           -3.2102     7.2486     4.8289 H       
@<TRIPOS>BOND
   1    1    2 1
   2    1    3 2
   3    2    5 2
   4    3    4 1
   5    3   18 1
   6    4    5 1
   7    5    6 1
   8    6    7 1
   9    6   49 1
  10    6   50 1
  11    7   22 1
  12    7   51 1
  13    7   52 1
  14    8    9 1
  15    8   22 1
  16    8   53 1
  17    8   54 1
  18    9   10 2
  19    9   11 1
  20   10   13 1
  21   11   12 1
  22   12   13 2
  23   12   14 1
  24   14   15 am
  25   14   55 1
  26   15   16 2
  27   15   17 1
  28   17   23 1
  29   17   40 1
  30   17   56 1
  31   18   19 am
  32   18   57 1
  33   19   20 1
  34   19   21 2
  35   20   24 1
  36   20   25 1
  37   20   58 1
  38   22   59 1
  39   22   60 1
  40   23   33 am
  41   23   61 1
  42   24   26 am
  43   24   62 1
  44   25   45 1
  45   25   46 1
  46   25   63 1
  47   26   27 1
  48   26   28 2
  49   27   29 1
  50   29   30 1
  51   29   31 1
  52   29   32 1
  53   30   64 1
  54   30   65 1
  55   30   66 1
  56   31   67 1
  57   31   68 1
  58   31   69 1
  59   32   70 1
  60   32   71 1
  61   32   72 1
  62   33   34 2
  63   33   35 1
  64   35   36 1
  65   36   37 1
  66   36   38 1
  67   36   39 1
  68   37   73 1
  69   37   74 1
  70   37   75 1
  71   38   76 1
  72   38   77 1
  73   38   78 1
  74   39   79 1
  75   39   80 1
  76   39   81 1
  77   40   41 1
  78   40   42 1
  79   40   82 1
  80   41   44 1
  81   41   83 1
  82   41   84 1
  83   42   43 1
  84   42   85 1
  85   42   86 1
  86   43   44 1
  87   43   87 1
  88   43   88 1
  89   44   89 1
  90   44   90 1
  91   45   48 1
  92   45   91 1
  93   45   92 1
  94   46   47 1
  95   46   93 1
  96   46   94 1
  97   47   48 1
  98   47   95 1
  99   47   96 1
 100   48   97 1
 101   48   98 1

#	End of record

