#	Name: ASD06170046
#	Creating user name:	WinNT
#	Creation time:	15. 06. 2019 21:05

#	Modifying user name:	WinNT
#	Modification time:	15. 06. 2019 21:05

#	Program:	/corina/corina34_cracker 3.40 0067  02.08.2006

@<TRIPOS>MOLECULE
ASD06170046
  64   68    0    0    0
SMALL
NO_CHARGES


@<TRIPOS>ATOM
   1 N1            -0.0391     1.4476    -1.2068 N.pl3   
   2 N2            -0.2052     0.2948    -0.4335 N.am    
   3 C3             1.0136    -0.1741    -0.0941 C.2     
   4 C4             1.9961     0.7432    -0.6929 C.2     
   5 C5             1.2724     1.7124    -1.3597 C.2     
   6 C6             3.4578     0.6471    -0.5998 C.2     
   7 O7             4.1583     1.4790    -1.1460 O.2     
   8 N8             4.0242    -0.3625     0.0905 N.am    
   9 C9            -1.4296    -0.2763    -0.0717 C.ar    
  10 C10           -1.5728    -1.6576    -0.0461 C.ar    
  11 C11           -2.7831    -2.2183     0.3115 C.ar    
  12 C12           -3.8520    -1.4062     0.6434 C.ar    
  13 C13           -3.7128    -0.0306     0.6189 C.ar    
  14 C14           -2.5033     0.5365     0.2681 C.ar    
  15 O15            1.2532    -1.1615     0.5756 O.2     
  16 C16            1.8528     2.8707    -2.1295 C.3     
  17 C17           -1.1298     2.2457    -1.7721 C.3     
  18 C18            5.4188    -0.4916     0.1251 C.ar    
  19 C19            5.9995    -1.7538     0.1658 C.ar    
  20 C20            7.3747    -1.8798     0.1999 C.ar    
  21 C21            8.1757    -0.7466     0.1936 C.ar    
  22 C22            7.5962     0.5131     0.1534 C.ar    
  23 C23            6.2215     0.6408     0.1130 C.ar    
  24 O24            9.5291    -0.8712     0.2272 O.3     
  25 N25           11.4332    -0.1182     3.8075 N.ar    
  26 C26           10.1396     0.0719     3.6951 C.ar    
  27 C27            9.4641    -0.1706     2.5058 C.ar    
  28 C28           10.1620    -0.6255     1.4009 C.ar    
  29 C29           11.5543    -0.8267     1.5334 C.ar    
  30 C30           12.3289    -1.2857     0.4576 C.ar    
  31 C31           13.6717    -1.4683     0.6214 C.ar    
  32 C32           14.2843    -1.2017     1.8541 C.ar    
  33 C33           13.5540    -0.7547     2.9173 C.ar    
  34 C34           12.1701    -0.5566     2.7798 C.ar    
  35 O35           15.6228    -1.3912     1.9925 O.3     
  36 C36           16.1900    -1.1026     3.2719 C.3     
  37 O37           14.4226    -1.9136    -0.4211 O.3     
  38 C38           13.7399    -2.1676    -1.6505 C.3     
  39 Cl39           4.9970    -3.1710     0.1742 Cl      
  40 H40            3.4663    -0.9996     0.5633 H       
  41 H41           -0.7386    -2.2924    -0.3059 H       
  42 H42           -2.8951    -3.2923     0.3317 H       
  43 H43           -4.7977    -1.8472     0.9221 H       
  44 H44           -4.5496     0.6010     0.8783 H       
  45 H45           -2.3939     1.6108     0.2535 H       
  46 H46            1.9761     3.7245    -1.4632 H       
  47 H47            2.8223     2.5859    -2.5383 H       
  48 H48            1.1798     3.1395    -2.9437 H       
  49 H49           -1.4808     2.9603    -1.0276 H       
  50 H50           -0.7701     2.7825    -2.6498 H       
  51 H51           -1.9502     1.5879    -2.0594 H       
  52 H52            7.8264    -2.8603     0.2319 H       
  53 H53            8.2204     1.3945     0.1493 H       
  54 H54            5.7710     1.6217     0.0769 H       
  55 H55            9.5848     0.4268     4.5511 H       
  56 H56            8.3986    -0.0054     2.4439 H       
  57 H57           11.8651    -1.4939    -0.4953 H       
  58 H58           14.0388    -0.5533     3.8611 H       
  59 H59           17.2625    -1.2958     3.2458 H       
  60 H60           16.0154    -0.0554     3.5189 H       
  61 H61           15.7249    -1.7364     4.0269 H       
  62 H62           12.9775    -2.9303    -1.4919 H       
  63 H63           13.2681    -1.2495    -2.0006 H       
  64 H64           14.4534    -2.5168    -2.3969 H       
@<TRIPOS>BOND
   1    1    2 1
   2    1    5 1
   3    1   17 1
   4    2    3 am
   5    2    9 1
   6    3    4 1
   7    3   15 2
   8    4    5 2
   9    4    6 1
  10    5   16 1
  11    6    7 2
  12    6    8 am
  13    8   18 1
  14    8   40 1
  15    9   10 ar
  16    9   14 ar
  17   10   11 ar
  18   10   41 1
  19   11   12 ar
  20   11   42 1
  21   12   13 ar
  22   12   43 1
  23   13   14 ar
  24   13   44 1
  25   14   45 1
  26   16   46 1
  27   16   47 1
  28   16   48 1
  29   17   49 1
  30   17   50 1
  31   17   51 1
  32   18   19 ar
  33   18   23 ar
  34   19   20 ar
  35   19   39 1
  36   20   21 ar
  37   20   52 1
  38   21   22 ar
  39   21   24 1
  40   22   23 ar
  41   22   53 1
  42   23   54 1
  43   24   28 1
  44   25   26 ar
  45   25   34 ar
  46   26   27 ar
  47   26   55 1
  48   27   28 ar
  49   27   56 1
  50   28   29 ar
  51   29   30 ar
  52   29   34 ar
  53   30   31 ar
  54   30   57 1
  55   31   32 ar
  56   31   37 1
  57   32   33 ar
  58   32   35 1
  59   33   34 ar
  60   33   58 1
  61   35   36 1
  62   36   59 1
  63   36   60 1
  64   36   61 1
  65   37   38 1
  66   38   62 1
  67   38   63 1
  68   38   64 1

#	End of record

