#	Name: ASD01911140
#	Creating user name:	WinNT
#	Creation time:	15. 06. 2019 19:57

#	Modifying user name:	WinNT
#	Modification time:	15. 06. 2019 19:57

#	Program:	/corina/corina34_cracker 3.40 0067  02.08.2006

@<TRIPOS>MOLECULE
ASD01911140
  47   50    0    0    0
SMALL
NO_CHARGES


@<TRIPOS>ATOM
   1 C1            -0.0167     1.3769     0.0096 C.ar    
   2 C2             0.0021    -0.0041     0.0020 C.ar    
   3 C3             1.2148    -0.6805    -0.0132 C.ar    
   4 C4             2.4052     0.0345    -0.0207 C.ar    
   5 C5             2.3798     1.4153    -0.0130 C.ar    
   6 C6             1.1705     2.0860     0.0021 C.ar    
   7 N7             1.2372    -2.0811    -0.0204 N.pl3   
   8 N8             0.3284    -2.9225     0.6337 N.2     
   9 C9             0.6733    -4.1704     0.3942 C.2     
  10 C10            1.8186    -4.1607    -0.4243 C.2     
  11 C11            2.1430    -2.8640    -0.6697 C.2     
  12 C12           -0.0244    -5.3784     0.9001 C.ar    
  13 C13           -1.1535    -5.2476     1.7061 C.ar    
  14 C14           -1.7988    -6.3746     2.1735 C.ar    
  15 C15           -1.3267    -7.6321     1.8431 C.ar    
  16 C16           -0.2060    -7.7677     1.0437 C.ar    
  17 C17            0.4437    -6.6476     0.5661 C.ar    
  18 N18            3.2142    -2.4160    -1.4406 N.am    
  19 C19            4.0429    -3.3046    -2.0238 C.2     
  20 C20            5.1765    -2.8305    -2.8397 C.ar    
  21 C21            6.0408    -3.7511    -3.4480 C.ar    
  22 C22            7.1033    -3.2939    -4.2134 C.ar    
  23 C23            7.3073    -1.9380    -4.3745 C.ar    
  24 C24            6.4552    -1.0248    -3.7749 C.ar    
  25 C25            5.3916    -1.4612    -3.0155 C.ar    
  26 O26            3.8560    -4.4973    -1.8773 O.2     
  27 O27            5.8394    -5.0831    -3.2884 O.3     
  28 C28            6.7609    -5.9610    -3.9382 C.3     
  29 H29           -0.9595     1.9036     0.0169 H       
  30 H30           -0.9254    -0.5573     0.0082 H       
  31 H31            3.3499    -0.4887    -0.0321 H       
  32 H32            3.3053     1.9719    -0.0185 H       
  33 H33            1.1533     3.1658     0.0077 H       
  34 H34            2.3434    -5.0290    -0.7945 H       
  35 H35           -1.5227    -4.2663     1.9649 H       
  36 H36           -2.6738    -6.2744     2.7986 H       
  37 H37           -1.8347    -8.5112     2.2110 H       
  38 H38            0.1588    -8.7519     0.7894 H       
  39 H39            1.3184    -6.7546    -0.0583 H       
  40 H40            3.3632    -1.4647    -1.5575 H       
  41 H41            7.7721    -3.9996    -4.6837 H       
  42 H42            8.1363    -1.5871    -4.9712 H       
  43 H43            6.6232     0.0339    -3.9065 H       
  44 H44            4.7299    -0.7458    -2.5499 H       
  45 H45            6.7315    -5.7871    -5.0138 H       
  46 H46            7.7677    -5.7705    -3.5666 H       
  47 H47            6.4862    -6.9950    -3.7297 H       
@<TRIPOS>BOND
   1    1    2 ar
   2    1    6 ar
   3    1   29 1
   4    2    3 ar
   5    2   30 1
   6    3    4 ar
   7    3    7 1
   8    4    5 ar
   9    4   31 1
  10    5    6 ar
  11    5   32 1
  12    6   33 1
  13    7    8 1
  14    7   11 1
  15    8    9 2
  16    9   10 1
  17    9   12 1
  18   10   11 2
  19   10   34 1
  20   11   18 1
  21   12   13 ar
  22   12   17 ar
  23   13   14 ar
  24   13   35 1
  25   14   15 ar
  26   14   36 1
  27   15   16 ar
  28   15   37 1
  29   16   17 ar
  30   16   38 1
  31   17   39 1
  32   18   19 am
  33   18   40 1
  34   19   20 1
  35   19   26 2
  36   20   21 ar
  37   20   25 ar
  38   21   22 ar
  39   21   27 1
  40   22   23 ar
  41   22   41 1
  42   23   24 ar
  43   23   42 1
  44   24   25 ar
  45   24   43 1
  46   25   44 1
  47   27   28 1
  48   28   45 1
  49   28   46 1
  50   28   47 1

#	End of record

