#	Name: ASD01148651
#	Creating user name:	WinNT
#	Creation time:	15. 06. 2019 19:02

#	Modifying user name:	WinNT
#	Modification time:	15. 06. 2019 19:02

#	Program:	/corina/corina34_cracker 3.40 0067  02.08.2006

@<TRIPOS>MOLECULE
ASD01148651
  33   34    0    0    0
SMALL
NO_CHARGES


@<TRIPOS>ATOM
   1 C1             0.0422     1.4318     0.2531 C.2     
   2 C2            -0.0493     0.0944    -0.1872 C.2     
   3 C3             1.3590     1.7562     0.3241 C.2     
   4 N4             2.0774     0.6633    -0.0577 N.pl3   
   5 N5             1.1756    -0.3612    -0.3720 N.2     
   6 C6             3.4747     0.5791    -0.1248 C.ar    
   7 C7             4.1480    -0.4056     0.5876 C.ar    
   8 C8             5.5263    -0.4855     0.5191 C.ar    
   9 C9             6.2350     0.4132    -0.2568 C.ar    
  10 C10            5.5683     1.3945    -0.9671 C.ar    
  11 C11            4.1896     1.4767    -0.9083 C.ar    
  12 Cl12           3.3536     2.7091    -1.8004 Cl      
  13 Cl13           3.2594    -1.5338     1.5629 Cl      
  14 N14            1.8814     2.9857     0.7163 N.pl3   
  15 S15           -1.3108     2.4939     0.6354 S.o     
  16 C16           -1.2964    -0.6629    -0.4026 C.2     
  17 S17           -2.1123    -0.5592    -1.9041 S.2     
  18 N18           -1.7937    -1.4365     0.5826 N.am    
  19 O19           -2.3504     1.9996    -0.1976 O.2     
  20 C20           -1.6752     2.0843     2.3646 C.3     
  21 F21           -0.5487     2.3436     3.1526 F       
  22 F22           -2.7471     2.8637     2.8125 F       
  23 F23           -2.0107     0.7296     2.4622 F       
  24 C24            7.7376     0.3234    -0.3280 C.3     
  25 F25            8.1049    -0.5190    -1.3829 F       
  26 F26            8.2714     1.5987    -0.5421 F       
  27 F27            8.2314    -0.1930     0.8748 F       
  28 H28            6.0504    -1.2507     1.0726 H       
  29 H29            6.1250     2.0948    -1.5721 H       
  30 H30            1.2867     3.7317     0.8915 H       
  31 H31            2.8400     3.0964     0.8143 H       
  32 H32           -1.3315    -1.4952     1.4334 H       
  33 H33           -2.6140    -1.9345     0.4410 H       
@<TRIPOS>BOND
   1    1    2 1
   2    1    3 2
   3    1   15 1
   4    2   16 1
   5    2    5 2
   6    3    4 1
   7    3   14 1
   8    4    5 1
   9    4    6 1
  10    6    7 ar
  11    6   11 ar
  12    7    8 ar
  13    7   13 1
  14    8    9 ar
  15    8   28 1
  16    9   10 ar
  17    9   24 1
  18   10   11 ar
  19   10   29 1
  20   11   12 1
  21   14   30 1
  22   14   31 1
  23   15   19 2
  24   15   20 1
  25   16   17 2
  26   16   18 am
  27   18   32 1
  28   18   33 1
  29   20   21 1
  30   20   22 1
  31   20   23 1
  32   24   25 1
  33   24   26 1
  34   24   27 1

#	End of record

