#	Name: ASD01410638
#	Creating user name:	WinNT
#	Creation time:	15. 06. 2019 19:18

#	Modifying user name:	WinNT
#	Modification time:	15. 06. 2019 19:18

#	Program:	/corina/corina34_cracker 3.40 0067  02.08.2006

@<TRIPOS>MOLECULE
ASD01410638
  63   66    0    0    0
SMALL
NO_CHARGES


@<TRIPOS>ATOM
   1 C1             1.1646     2.6579    -2.9185 C.ar    
   2 C2             1.6825     1.9581    -3.9995 C.ar    
   3 C3             2.8329     1.2124    -3.8330 C.ar    
   4 N4             3.4409     1.1590    -2.6635 N.ar    
   5 C5             2.9779     1.8120    -1.6100 C.ar    
   6 C6             1.8255     2.5816    -1.7048 C.ar    
   7 O7             3.6349     1.7290    -0.4260 O.3     
   8 C8             4.6989     0.8858    -0.3439 C.ar    
   9 C9             5.9429     1.2891    -0.8230 C.ar    
  10 C10            7.0304     0.4391    -0.7440 C.ar    
  11 C11            6.8880    -0.8232    -0.1863 C.ar    
  12 C12            5.6361    -1.2347     0.2981 C.ar    
  13 C13            4.5436    -0.3658     0.2194 C.ar    
  14 F14            6.0875     2.5168    -1.3679 F       
  15 N15            7.9836    -1.6798    -0.1076 N.am    
  16 C16            8.7350    -1.7119     1.0108 C.2     
  17 C17            8.3191    -2.5459    -1.2405 C.3     
  18 O18            9.7363    -2.3995     1.0507 O.2     
  19 C19            8.3407    -0.9094     2.1909 C.ar    
  20 N20            7.1893    -0.2481     2.1820 N.ar    
  21 C21            6.8016     0.4759     3.2086 C.ar    
  22 C22            7.5882     0.5756     4.3474 C.ar    
  23 C23            8.7990    -0.0997     4.3981 C.ar    
  24 C24            9.1784    -0.8593     3.3031 C.ar    
  25 Cl25           7.0627     1.5360     5.6946 Cl      
  26 C26            8.3456    -4.0040    -0.7775 C.3     
  27 C27            9.6946    -2.1597    -1.7880 C.3     
  28 O28            9.6370    -0.8398    -2.3327 O.3     
  29 C29           10.8770    -0.3797    -2.8738 C.3     
  30 N30            1.5361     3.1271    -6.1211 N.pl3   
  31 N31            2.5450     3.0435    -6.9142 N.2     
  32 C32            2.7552     4.2224    -7.4546 C.2     
  33 C33            1.7766     5.0664    -6.9245 C.2     
  34 N34            1.0620     4.3224    -6.1109 N.2     
  35 C35            0.9966     2.0111    -5.3403 C.3     
  36 C36            1.3018     3.3237    -0.5022 C.3     
  37 F37            0.1398     4.0193    -0.8531 F       
  38 F38            1.0094     2.4117     0.5176 F       
  39 F39            2.2701     4.2289    -0.0548 F       
  40 C40            5.4759    -2.5728     0.8917 C.2     
  41 O41            6.4466    -3.2859     1.0534 O.2     
  42 O42            4.2529    -3.0065     1.2556 O.3     
  43 H43            0.2687     3.2520    -3.0232 H       
  44 H44            3.2398     0.6658    -4.6709 H       
  45 H45            7.9922     0.7582    -1.1173 H       
  46 H46            3.5780    -0.6759     0.5905 H       
  47 H47            7.5700    -2.4268    -2.0233 H       
  48 H48            5.8585     1.0003     3.1649 H       
  49 H49            9.4295    -0.0382     5.2729 H       
  50 H50           10.1143    -1.3981     3.3083 H       
  51 H51            7.3375    -4.3173    -0.5061 H       
  52 H52            8.7171    -4.6349    -1.5850 H       
  53 H53            9.0009    -4.0984     0.0883 H       
  54 H54           10.4277    -2.1883    -0.9818 H       
  55 H55            9.9854    -2.8625    -2.5687 H       
  56 H56           10.7499     0.6290    -3.2669 H       
  57 H57           11.6346    -0.3714    -2.0901 H       
  58 H58           11.1923    -1.0456    -3.6770 H       
  59 H59            3.5268     4.4851    -8.1632 H       
  60 H60            1.6362     6.1154    -7.1394 H       
  61 H61            1.1699     1.0767    -5.8742 H       
  62 H62           -0.0743     2.1534    -5.1952 H       
  63 H63            4.1977    -3.8917     1.6408 H       
@<TRIPOS>BOND
   1    1    2 ar
   2    1    6 ar
   3    1   43 1
   4    2    3 ar
   5    2   35 1
   6    3    4 ar
   7    3   44 1
   8    4    5 ar
   9    5    6 ar
  10    5    7 1
  11    6   36 1
  12    7    8 1
  13    8    9 ar
  14    8   13 ar
  15    9   10 ar
  16    9   14 1
  17   10   11 ar
  18   10   45 1
  19   11   12 ar
  20   11   15 1
  21   12   13 ar
  22   12   40 1
  23   13   46 1
  24   15   16 am
  25   15   17 1
  26   16   18 2
  27   16   19 1
  28   17   26 1
  29   17   27 1
  30   17   47 1
  31   19   20 ar
  32   19   24 ar
  33   20   21 ar
  34   21   22 ar
  35   21   48 1
  36   22   23 ar
  37   22   25 1
  38   23   24 ar
  39   23   49 1
  40   24   50 1
  41   26   51 1
  42   26   52 1
  43   26   53 1
  44   27   28 1
  45   27   54 1
  46   27   55 1
  47   28   29 1
  48   29   56 1
  49   29   57 1
  50   29   58 1
  51   30   31 1
  52   30   34 1
  53   30   35 1
  54   31   32 2
  55   32   33 1
  56   32   59 1
  57   33   34 2
  58   33   60 1
  59   35   61 1
  60   35   62 1
  61   36   37 1
  62   36   38 1
  63   36   39 1
  64   40   41 2
  65   40   42 1
  66   42   63 1

#	End of record

