#	Name: ASD01148129
#	Creating user name:	WinNT
#	Creation time:	15. 06. 2019 19:02

#	Modifying user name:	WinNT
#	Modification time:	15. 06. 2019 19:02

#	Program:	/corina/corina34_cracker 3.40 0067  02.08.2006

@<TRIPOS>MOLECULE
ASD01148129
  41   42    0    0    0
SMALL
NO_CHARGES


@<TRIPOS>ATOM
   1 C1            -0.0166     1.3748     0.0096 C.ar    
   2 C2             0.0021    -0.0041     0.0020 C.ar    
   3 C3             1.1753     2.0867     0.0020 C.ar    
   4 C4             2.3892     1.4131    -0.0131 C.ar    
   5 C5             2.4142     0.0343    -0.0212 C.ar    
   6 C6             1.2192    -0.6830    -0.0132 C.ar    
   7 C7            -1.3322     2.1098     0.0198 C.3     
   8 C8            -2.1351     1.7356    -1.2277 C.3     
   9 C9            -2.1233     1.7220     1.2707 C.3     
  10 C10            3.6808     2.1894    -0.0213 C.3     
  11 C11            4.5014     1.8273     1.2182 C.3     
  12 C12            4.4775     1.8407    -1.2801 C.3     
  13 O13            1.1538     3.4452     0.0091 O.3     
  14 C14            1.2427    -2.1665    -0.0214 C.ar    
  15 C15            0.0486    -2.8845    -0.0134 C.ar    
  16 C16            0.0749    -4.2647    -0.0210 C.ar    
  17 C17            1.2834    -4.9362    -0.0365 C.ar    
  18 C18            2.4746    -4.2283    -0.0445 C.ar    
  19 C19            2.4589    -2.8462    -0.0428 C.ar    
  20 F20            3.6525    -4.8897    -0.0597 F       
  21 H21           -0.9255    -0.5573     0.0082 H       
  22 H22            3.3588    -0.4892    -0.0338 H       
  23 H23           -1.1482     3.1841     0.0248 H       
  24 H24           -2.3191     0.6613    -1.2327 H       
  25 H25           -3.0867     2.2672    -1.2203 H       
  26 H26           -1.5715     2.0119    -2.1189 H       
  27 H27           -1.5513     1.9886     2.1595 H       
  28 H28           -3.0749     2.2536     1.2781 H       
  29 H29           -2.3073     0.6477     1.2657 H       
  30 H30            3.4629     3.2574    -0.0135 H       
  31 H31            4.7193     0.7594     1.2104 H       
  32 H32            5.4356     2.3888     1.2123 H       
  33 H33            3.9338     2.0758     2.1150 H       
  34 H34            3.8930     2.0987    -2.1632 H       
  35 H35            5.4117     2.4022    -1.2860 H       
  36 H36            4.6955     0.7727    -1.2879 H       
  37 H37            1.1558     3.8340     0.8945 H       
  38 H38           -0.8965    -2.3619    -0.0009 H       
  39 H39           -0.8507    -4.8213    -0.0145 H       
  40 H40            1.2991    -6.0161    -0.0421 H       
  41 H41            3.3872    -2.2944    -0.0494 H       
@<TRIPOS>BOND
   1    1    2 ar
   2    1    3 ar
   3    1    7 1
   4    2    6 ar
   5    2   21 1
   6    3    4 ar
   7    3   13 1
   8    4    5 ar
   9    4   10 1
  10    5    6 ar
  11    5   22 1
  12    6   14 1
  13    7    8 1
  14    7    9 1
  15    7   23 1
  16    8   24 1
  17    8   25 1
  18    8   26 1
  19    9   27 1
  20    9   28 1
  21    9   29 1
  22   10   11 1
  23   10   12 1
  24   10   30 1
  25   11   31 1
  26   11   32 1
  27   11   33 1
  28   12   34 1
  29   12   35 1
  30   12   36 1
  31   13   37 1
  32   14   15 ar
  33   14   19 ar
  34   15   16 ar
  35   15   38 1
  36   16   17 ar
  37   16   39 1
  38   17   18 ar
  39   17   40 1
  40   18   19 ar
  41   18   20 1
  42   19   41 1

#	End of record

