#	Name: ASD01941004
#	Creating user name:	WinNT
#	Creation time:	15. 06. 2019 20:13

#	Modifying user name:	WinNT
#	Modification time:	15. 06. 2019 20:13

#	Program:	/corina/corina34_cracker 3.40 0067  02.08.2006

@<TRIPOS>MOLECULE
ASD01941004
  52   53    0    0    0
SMALL
NO_CHARGES


@<TRIPOS>ATOM
   1 C1             0.3385     0.2244    -0.4929 C.ar    
   2 C2             0.3237    -0.2715     0.8075 C.ar    
   3 C3             1.3635     0.0493     1.6930 C.ar    
   4 C4             2.4039     0.8567     1.2790 C.ar    
   5 C5             2.4269     1.3569    -0.0193 C.ar    
   6 C6             1.3887     1.0400    -0.9124 C.ar    
   7 F7             1.3463    -0.4331     2.9549 F       
   8 F8             3.4020     1.1623     2.1366 F       
   9 N9             3.4741     2.1687    -0.4321 N.pl3   
  10 C10            4.6529     1.5955    -0.9201 C.ar    
  11 C11            4.7353     0.2217    -1.1015 C.ar    
  12 C12            5.9010    -0.3419    -1.5837 C.ar    
  13 C13            6.9861     0.4603    -1.8860 C.ar    
  14 C14            6.9092     1.8303    -1.7065 C.ar    
  15 C15            5.7438     2.4015    -1.2303 C.ar    
  16 F16            5.6683     3.7390    -1.0553 F       
  17 I17            8.7508    -0.4004    -2.6168 I       
  18 C18            1.4105     1.5679    -2.2881 C.2     
  19 O19            2.2724     2.3579    -2.6227 O.2     
  20 N20            0.4753     1.1750    -3.1755 N.am    
  21 O21            0.4962     1.6822    -4.4974 O.3     
  22 C22           -0.5524     1.1810    -5.3289 C.3     
  23 C23           -0.4320     1.7929    -6.7260 C.3     
  24 O24            0.7806     1.3487    -7.3378 O.3     
  25 C25           -0.7856    -1.1339     1.2547 C.2     
  26 N26           -0.7996    -1.5952     2.4640 N.2     
  27 O27           -1.8648    -2.4234     2.8935 O.3     
  28 C28           -1.7514    -2.8597     4.2495 C.3     
  29 C29           -2.9498    -3.7429     4.6030 C.3     
  30 S30           -2.8058    -4.2968     6.3243 S.o2    
  31 C31           -4.3003    -5.3063     6.5193 C.3     
  32 O32           -1.6700    -5.1437     6.4339 O.2     
  33 O33           -2.9109    -3.1634     7.1749 O.2     
  34 H34           -0.4592    -0.0256    -1.1767 H       
  35 H35            3.3885     3.1336    -0.3821 H       
  36 H36            3.8888    -0.4062    -0.8656 H       
  37 H37            5.9650    -1.4108    -1.7245 H       
  38 H38            7.7584     2.4541    -1.9431 H       
  39 H39           -0.2122     0.5448    -2.9086 H       
  40 H40           -0.4732     0.0962    -5.3993 H       
  41 H41           -1.5172     1.4476    -4.8973 H       
  42 H42           -1.2812     1.4807    -7.3338 H       
  43 H43           -0.4220     2.8800    -6.6469 H       
  44 H44            0.9230     1.6983    -8.2280 H       
  45 H45           -1.5863    -1.3807     0.5733 H       
  46 H46           -0.8309    -3.4305     4.3718 H       
  47 H47           -1.7318    -1.9927     4.9098 H       
  48 H48           -3.8703    -3.1722     4.4807 H       
  49 H49           -2.9694    -4.6100     3.9427 H       
  50 H50           -4.2802    -6.1274     5.8027 H       
  51 H51           -4.3376    -5.7085     7.5318 H       
  52 H52           -5.1812    -4.6896     6.3407 H       
@<TRIPOS>BOND
   1    1    2 ar
   2    1    6 ar
   3    1   34 1
   4    2    3 ar
   5    2   25 1
   6    3    4 ar
   7    3    7 1
   8    4    5 ar
   9    4    8 1
  10    5    6 ar
  11    5    9 1
  12    6   18 1
  13    9   10 1
  14    9   35 1
  15   10   11 ar
  16   10   15 ar
  17   11   12 ar
  18   11   36 1
  19   12   13 ar
  20   12   37 1
  21   13   14 ar
  22   13   17 1
  23   14   15 ar
  24   14   38 1
  25   15   16 1
  26   18   19 2
  27   18   20 am
  28   20   21 1
  29   20   39 1
  30   21   22 1
  31   22   23 1
  32   22   40 1
  33   22   41 1
  34   23   24 1
  35   23   42 1
  36   23   43 1
  37   24   44 1
  38   25   26 2
  39   25   45 1
  40   26   27 1
  41   27   28 1
  42   28   29 1
  43   28   46 1
  44   28   47 1
  45   29   30 1
  46   29   48 1
  47   29   49 1
  48   30   31 1
  49   30   32 2
  50   30   33 2
  51   31   50 1
  52   31   51 1
  53   31   52 1

#	End of record

