#	Name: ASD03092758
#	Creating user name:	WinNT
#	Creation time:	15. 06. 2019 20:33

#	Modifying user name:	WinNT
#	Modification time:	15. 06. 2019 20:33

#	Program:	/corina/corina34_cracker 3.40 0067  02.08.2006

@<TRIPOS>MOLECULE
ASD03092758
  39   40    0    0    0
SMALL
NO_CHARGES


@<TRIPOS>ATOM
   1 Cl1            0.0000     0.0000     0.0000 Cl      
   2 H2             0.0000     1.3700     0.0000 H       
   3 C3             7.1331    11.6358    15.0870 C.3     
   4 C4             7.1535    10.1289    15.0787 C.ar    
   5 C5             7.1577     9.4199    13.8759 C.ar    
   6 N6             7.1430    10.0904    12.6637 N.pl3   
   7 C7             7.1475     9.3348    11.4086 C.3     
   8 C8             7.1292    10.2928    10.2454 C.ar    
   9 C9             5.9238    10.7254     9.7148 C.ar    
  10 N10            5.8781    11.5612     8.6991 N.ar    
  11 C11            6.9820    12.0309     8.1336 C.ar    
  12 N12            7.2098    12.8927     7.0877 N.pl3   
  13 H13            6.5183    13.3234     6.5612 H       
  14 C14            8.5561    13.0541     6.8978 C.2     
  15 C15            9.2355    12.3200     7.7929 C.2     
  16 C16            8.2422    11.6343     8.6213 C.ar    
  17 C17            8.3142    10.7523     9.7017 C.ar    
  18 C18            9.1823    13.9263     5.8404 C.3     
  19 F19            8.1764    14.5420     5.0879 F       
  20 F20            9.9730    14.9054     6.4515 F       
  21 F21            9.9790    13.1412     5.0000 F       
  22 N22            7.1764     8.0906    13.9126 N.ar    
  23 C23            7.1908     7.4499    15.0637 C.ar    
  24 N24            7.1874     8.0901    16.2157 N.ar    
  25 C25            7.1744     9.4147    16.2607 C.ar    
  26 C26            7.1772    10.1328    17.5857 C.3     
  27 F27            5.8593    10.3370    18.0082 F       
  28 F28            7.8563     9.3598    18.5336 F       
  29 F29            7.8187    11.3681    17.4453 F       
  30 H30            8.1557    12.0131    15.0793 H       
  31 H31            6.6059    11.9969    14.2040 H       
  32 H32            6.6229    11.9873    15.9838 H       
  33 H33            7.1297    11.0601    12.6459 H       
  34 H34            8.0457     8.7193    11.3582 H       
  35 H35            6.2660     8.6951    11.3664 H       
  36 H36            5.0000    10.3678    10.1450 H       
  37 H37           10.3092    12.2486     7.8842 H       
  38 H38            9.2675    10.4355    10.0982 H       
  39 H39            7.2055     6.3700    15.0633 H       
@<TRIPOS>BOND
   1    1    2 1
   2    3    4 1
   3    3   30 1
   4    3   31 1
   5    3   32 1
   6    4   25 ar
   7    4    5 ar
   8    5    6 1
   9    5   22 ar
  10    6    7 1
  11    6   33 1
  12    7    8 1
  13    7   34 1
  14    7   35 1
  15    8   17 ar
  16    8    9 ar
  17    9   10 ar
  18    9   36 1
  19   10   11 ar
  20   11   16 ar
  21   11   12 1
  22   12   13 1
  23   12   14 1
  24   14   15 2
  25   14   18 1
  26   15   16 1
  27   15   37 1
  28   16   17 ar
  29   17   38 1
  30   18   19 1
  31   18   20 1
  32   18   21 1
  33   22   23 ar
  34   23   24 ar
  35   23   39 1
  36   24   25 ar
  37   25   26 1
  38   26   27 1
  39   26   28 1
  40   26   29 1

#	End of record

