#	Name: ASD02408049
#	Creating user name:	WinNT
#	Creation time:	15. 06. 2019 20:21

#	Modifying user name:	WinNT
#	Modification time:	15. 06. 2019 20:21

#	Program:	/corina/corina34_cracker 3.40 0067  02.08.2006

@<TRIPOS>MOLECULE
ASD02408049
  43   46    0    0    0
SMALL
NO_CHARGES


@<TRIPOS>ATOM
   1 C1             2.3158     5.9825    -4.1933 C.2     
   2 C2             1.1340     6.5978    -4.2569 C.2     
   3 C3             2.8561     5.3951    -2.9150 C.3     
   4 C4             2.4076     3.9617    -2.7919 C.2     
   5 N5             2.7863     3.2514    -1.7118 N.am    
   6 N6             1.6605     3.4513    -3.7329 N.2     
   7 C7             1.2321     2.1838    -3.6764 C.2     
   8 C8             1.5944     1.3842    -2.5798 C.2     
   9 C9             2.4024     1.9654    -1.5689 C.2     
  10 N10            0.4467     1.6713    -4.6796 N.pl3   
  11 C11           -0.6836     0.7860    -4.3673 C.3     
  12 O12            2.7459     1.3167    -0.5958 O.2     
  13 S13            0.8434     7.1484    -5.9019 S.3     
  14 C14            2.3889     6.4926    -6.4262 C.2     
  15 C15            3.0057     5.9193    -5.3917 C.2     
  16 C16           -1.9491     1.3536    -5.0178 C.3     
  17 C17           -1.7013     1.5592    -6.5134 C.3     
  18 C18           -0.5583     2.5549    -6.7201 C.3     
  19 C19            0.7168     2.0027    -6.0853 C.3     
  20 O20           -1.3650     0.3066    -7.1229 O.3     
  21 C21           -2.3540     0.0459    -8.1395 C.3     
  22 C22           -2.9281     1.4532    -8.4391 C.3     
  23 O23           -2.8954     2.0694    -7.1292 O.3     
  24 C24            1.1566     0.0243    -2.4824 C.1     
  25 N25            0.8093    -1.0546    -2.4052 N.1     
  26 H26            0.4587     6.7364    -3.4255 H       
  27 H27            3.9453     5.4351    -2.9287 H       
  28 H28            2.4821     5.9670    -2.0658 H       
  29 H29            3.3392     3.6671    -1.0318 H       
  30 H30           -0.4863    -0.2112    -4.7608 H       
  31 H31           -0.8197     0.7344    -3.2870 H       
  32 H32            2.7770     6.5424    -7.4328 H       
  33 H33            3.9736     5.4486    -5.4806 H       
  34 H34           -2.7743     0.6553    -4.8784 H       
  35 H35           -2.1985     2.3088    -4.5558 H       
  36 H36           -0.3978     2.7080    -7.7873 H       
  37 H37           -0.8137     3.5046    -6.2503 H       
  38 H38            1.5064     2.7521    -6.1400 H       
  39 H39            1.0279     1.1018    -6.6142 H       
  40 H40           -1.8890    -0.3779    -9.0296 H       
  41 H41           -3.1329    -0.6148    -7.7588 H       
  42 H42           -2.2918     1.9931    -9.1403 H       
  43 H43           -3.9496     1.3863    -8.8135 H       
@<TRIPOS>BOND
   1    1    2 2
   2    1    3 1
   3    1   15 1
   4    2   13 1
   5    2   26 1
   6    3    4 1
   7    3   27 1
   8    3   28 1
   9    4    5 1
  10    4    6 2
  11    5    9 am
  12    5   29 1
  13    6    7 1
  14    7    8 2
  15    7   10 1
  16    8    9 1
  17    8   24 1
  18    9   12 2
  19   10   11 1
  20   10   19 1
  21   11   16 1
  22   11   30 1
  23   11   31 1
  24   13   14 1
  25   14   15 2
  26   14   32 1
  27   15   33 1
  28   16   17 1
  29   16   34 1
  30   16   35 1
  31   17   18 1
  32   17   20 1
  33   17   23 1
  34   18   19 1
  35   18   36 1
  36   18   37 1
  37   19   38 1
  38   19   39 1
  39   20   21 1
  40   21   22 1
  41   21   40 1
  42   21   41 1
  43   22   23 1
  44   22   42 1
  45   22   43 1
  46   24   25 3

#	End of record

