#	Name: ASD03570019
#	Creating user name:	WinNT
#	Creation time:	15. 06. 2019 20:43

#	Modifying user name:	WinNT
#	Modification time:	15. 06. 2019 20:43

#	Program:	/corina/corina34_cracker 3.40 0067  02.08.2006

@<TRIPOS>MOLECULE
ASD03570019
  41   43    0    0    0
SMALL
NO_CHARGES


@<TRIPOS>ATOM
   1 C1            -0.0168     1.3848     0.0097 C.ar    
   2 C2             0.0021    -0.0041     0.0020 C.ar    
   3 C3             1.1961    -0.6899    -0.0130 C.ar    
   4 C4             2.3976     0.0127    -0.0207 C.ar    
   5 C5             2.3759     1.4216    -0.0130 C.ar    
   6 C6             1.1481     2.0958     0.0024 C.ar    
   7 N7             3.7156    -0.3779    -0.0358 N.pl3   
   8 C8             4.5141     0.7500    -0.0377 C.2     
   9 C9             3.7232     1.8556    -0.0239 C.2     
  10 C10            4.1960     3.2865    -0.0214 C.3     
  11 C11            4.3419     3.7780    -1.4629 C.3     
  12 C12           -1.2970    -0.7679     0.0108 C.3     
  13 C13           -1.7441    -1.0149    -1.4070 C.ar    
  14 C14           -1.3424    -2.1601    -2.0688 C.ar    
  15 C15           -2.5605    -0.0989    -2.0438 C.ar    
  16 C16           -2.9706    -0.3255    -3.3443 C.ar    
  17 C17           -2.5640    -1.4678    -4.0082 C.ar    
  18 C18           -1.7525    -2.3867    -3.3694 C.ar    
  19 C19            4.8147     5.2089    -1.4604 C.2     
  20 O20            5.0144     5.7773    -0.4131 O.2     
  21 O21            5.0139     5.8520    -2.6216 O.3     
  22 C22            5.9830     0.7536    -0.0522 C.2     
  23 O23            6.5882     1.8080    -0.0520 O.2     
  24 O24            6.6600    -0.4125    -0.0656 O.3     
  25 H25           -0.9621     1.9069     0.0169 H       
  26 H26            1.2003    -1.7699    -0.0185 H       
  27 H27            1.1233     3.1755     0.0080 H       
  28 H28            4.0329    -1.2945    -0.0436 H       
  29 H29            3.4700     3.9081     0.5027 H       
  30 H30            5.1600     3.3498     0.4834 H       
  31 H31            5.0679     3.1564    -1.9870 H       
  32 H32            3.3779     3.7148    -1.9677 H       
  33 H33           -1.1540    -1.7220     0.5181 H       
  34 H34           -2.0561    -0.1876     0.5353 H       
  35 H35           -0.7080    -2.8777    -1.5699 H       
  36 H36           -2.8781     0.7935    -1.5251 H       
  37 H37           -3.6090     0.3898    -3.8415 H       
  38 H38           -2.8847    -1.6449    -5.0241 H       
  39 H39           -1.4349    -3.2791    -3.8880 H       
  40 H40            5.3173     6.7687    -2.5694 H       
  41 H41            7.6255    -0.3594    -0.0748 H       
@<TRIPOS>BOND
   1    1    2 ar
   2    1    6 ar
   3    1   25 1
   4    2    3 ar
   5    2   12 1
   6    3    4 ar
   7    3   26 1
   8    4    5 ar
   9    4    7 1
  10    5    6 ar
  11    5    9 1
  12    6   27 1
  13    7    8 1
  14    7   28 1
  15    8    9 2
  16    8   22 1
  17    9   10 1
  18   10   11 1
  19   10   29 1
  20   10   30 1
  21   11   19 1
  22   11   31 1
  23   11   32 1
  24   12   13 1
  25   12   33 1
  26   12   34 1
  27   13   14 ar
  28   13   15 ar
  29   14   18 ar
  30   14   35 1
  31   15   16 ar
  32   15   36 1
  33   16   17 ar
  34   16   37 1
  35   17   18 ar
  36   17   38 1
  37   18   39 1
  38   19   20 2
  39   19   21 1
  40   21   40 1
  41   22   23 2
  42   22   24 1
  43   24   41 1

#	End of record

