#	Name: ASD03092460
#	Creating user name:	WinNT
#	Creation time:	15. 06. 2019 20:32

#	Modifying user name:	WinNT
#	Modification time:	15. 06. 2019 20:32

#	Program:	/corina/corina34_cracker 3.40 0067  02.08.2006

@<TRIPOS>MOLECULE
ASD03092460
  64   67    0    0    0
SMALL
NO_CHARGES


@<TRIPOS>ATOM
   1 O1            -0.3522     0.9516    -1.1070 O.3     
   2 N2            -0.3173    -0.2546    -1.1853 N.2     
   3 C3             0.8976    -0.7074    -1.0696 C.2     
   4 C4             1.7293     0.4220    -0.8921 C.2     
   5 C5             0.8707     1.4691    -0.9241 C.2     
   6 C6             3.8938     0.5597    -2.0550 C.2     
   7 C7             3.2248     0.4536    -0.7088 C.3     
   8 O8             3.2223     0.6053    -3.0639 O.2     
   9 N9             5.2382     0.6041    -2.1377 N.am    
  10 C10            1.2211     2.9279    -0.7829 C.3     
  11 C11            1.3316    -2.1499    -1.1154 C.3     
  12 C12            5.8886     0.7073    -3.4464 C.3     
  13 S13            9.7881     1.4701    -2.9882 S.3     
  14 C14            9.3915    -0.1927    -2.9888 C.2     
  15 N15            8.1111    -0.3506    -3.1419 N.2     
  16 C16            7.3841     0.7389    -3.2631 C.2     
  17 C17            8.0908     1.8872    -3.2094 C.2     
  18 C18            7.5690     5.4598    -4.2431 C.ar    
  19 C19            8.1175     4.1975    -4.1739 C.ar    
  20 C20            7.5390     3.2520    -3.3165 C.ar    
  21 C21            6.4218     3.6384    -2.5641 C.ar    
  22 C22            5.9398     4.9226    -2.6959 C.ar    
  23 N23            6.5152     5.7822    -3.5162 N.ar    
  24 C24            4.7389     5.3516    -1.8928 C.3     
  25 C25            8.1847     6.4885    -5.1562 C.3     
  26 N26           10.3034    -1.2227    -2.8469 N.3     
  27 C27           11.6689    -0.7001    -2.6937 C.3     
  28 C28           12.6504    -1.8714    -2.6001 C.3     
  29 O29           12.2702    -2.7196    -1.5132 O.3     
  30 C30           10.9459    -3.2468    -1.6303 C.3     
  31 C31            9.9472    -2.0895    -1.7141 C.3     
  32 C32           10.6287    -4.1078    -0.4060 C.3     
  33 C33           14.0634    -1.3360    -2.3602 C.3     
  34 H34            3.4979     1.3143    -0.0984 H       
  35 H35            3.5494    -0.4612    -0.2129 H       
  36 H36            5.7753     0.5676    -1.3308 H       
  37 H37            0.3137     3.5279    -0.8515 H       
  38 H38            1.6954     3.0957     0.1841 H       
  39 H39            1.9078     3.2154    -1.5791 H       
  40 H40            1.5593    -2.4283    -2.1444 H       
  41 H41            2.2203    -2.2817    -0.4982 H       
  42 H42            0.5291    -2.7829    -0.7369 H       
  43 H43            5.6154    -0.1535    -4.0568 H       
  44 H44            5.5639     1.6221    -3.9423 H       
  45 H45            8.9795     3.9407    -4.7717 H       
  46 H46            5.9456     2.9403    -1.8916 H       
  47 H47            5.0682     5.7652    -0.9395 H       
  48 H48            4.1841     6.1098    -2.4455 H       
  49 H49            4.0959     4.4902    -1.7123 H       
  50 H50            7.7181     6.4274    -6.1394 H       
  51 H51            8.0275     7.4838    -4.7406 H       
  52 H52            9.2540     6.2983    -5.2491 H       
  53 H53           11.9209    -0.0821    -3.5555 H       
  54 H54           11.7295    -0.1010    -1.7852 H       
  55 H55           12.6287    -2.4396    -3.5300 H       
  56 H56           10.8747    -3.8550    -2.5321 H       
  57 H57            9.9803    -1.5126    -0.7899 H       
  58 H58            8.9424    -2.4857    -1.8609 H       
  59 H59           10.6983    -3.4981     0.4948 H       
  60 H60            9.6193    -4.5093    -0.4958 H       
  61 H61           11.3424    -4.9293    -0.3447 H       
  62 H62           14.0842    -0.7697    -1.4291 H       
  63 H63           14.7617    -2.1704    -2.2937 H       
  64 H64           14.3511    -0.6866    -3.1870 H       
@<TRIPOS>BOND
   1    1    2 1
   2    1    5 1
   3    2    3 2
   4    3    4 1
   5    3   11 1
   6    4    5 2
   7    4    7 1
   8    5   10 1
   9    6    7 1
  10    6    8 2
  11    6    9 am
  12    7   34 1
  13    7   35 1
  14    9   12 1
  15    9   36 1
  16   10   37 1
  17   10   38 1
  18   10   39 1
  19   11   40 1
  20   11   41 1
  21   11   42 1
  22   12   16 1
  23   12   43 1
  24   12   44 1
  25   13   14 1
  26   13   17 1
  27   14   15 2
  28   14   26 1
  29   15   16 1
  30   16   17 2
  31   17   20 1
  32   18   19 ar
  33   18   23 ar
  34   18   25 1
  35   19   20 ar
  36   19   45 1
  37   20   21 ar
  38   21   22 ar
  39   21   46 1
  40   22   23 ar
  41   22   24 1
  42   24   47 1
  43   24   48 1
  44   24   49 1
  45   25   50 1
  46   25   51 1
  47   25   52 1
  48   26   27 1
  49   26   31 1
  50   27   28 1
  51   27   53 1
  52   27   54 1
  53   28   29 1
  54   28   33 1
  55   28   55 1
  56   29   30 1
  57   30   31 1
  58   30   32 1
  59   30   56 1
  60   31   57 1
  61   31   58 1
  62   32   59 1
  63   32   60 1
  64   32   61 1
  65   33   62 1
  66   33   63 1
  67   33   64 1

#	End of record

