#	Name: ASD01910588
#	Creating user name:	WinNT
#	Creation time:	15. 06. 2019 19:56

#	Modifying user name:	WinNT
#	Modification time:	15. 06. 2019 19:56

#	Program:	/corina/corina34_cracker 3.40 0067  02.08.2006

@<TRIPOS>MOLECULE
ASD01910588
  49   52    0    0    0
SMALL
NO_CHARGES


@<TRIPOS>ATOM
   1 C1             0.0207     1.3063    -0.0606 C.ar    
   2 C2             0.0530    -0.0757    -0.0679 C.ar    
   3 C3             1.2639    -0.7467    -0.0711 C.ar    
   4 C4             2.4483    -0.0407    -0.0669 C.ar    
   5 C5             2.4260     1.3553    -0.0599 C.ar    
   6 C6             1.2003     2.0279    -0.0568 C.ar    
   7 C7             3.6910     2.1179    -0.0549 C.2     
   8 N8             3.8200     3.4332    -0.0482 N.2     
   9 C9             5.1419     3.6649    -0.0453 C.2     
  10 N10            5.7438     2.5122    -0.0503 N.2     
  11 O11            4.9333     1.6100    -0.0504 O.3     
  12 C12            5.8082     5.0166    -0.0385 C.3     
  13 C13            6.6793     5.1503     1.2127 C.3     
  14 C14            7.3306     6.5350     1.2373 C.3     
  15 C15            8.2265     6.6955     0.0051 C.3     
  16 N16            7.4281     6.4254    -1.1984 N.am    
  17 C17            6.6868     5.1598    -1.2852 C.3     
  18 C18            7.3767     7.3216    -2.2037 C.2     
  19 C19            8.0486     8.6252    -2.0635 C.ar    
  20 O20            6.7757     7.0542    -3.2267 O.2     
  21 C21            9.4088     8.6842    -1.7478 C.ar    
  22 C22           10.0320     9.9050    -1.6184 C.ar    
  23 C23            9.3156    11.0807    -1.8001 C.ar    
  24 C24            7.9693    11.0378    -2.1127 C.ar    
  25 C25            7.3270     9.8154    -2.2521 C.ar    
  26 F26            9.9374    12.2731    -1.6701 F       
  27 F27            1.1685     3.3785    -0.0505 F       
  28 N28            5.9750     9.7694    -2.5666 N.pl3   
  29 C29            5.1984    11.0091    -2.6442 C.3     
  30 H30           -0.9274     1.8233    -0.0623 H       
  31 H31           -0.8710    -0.6347    -0.0709 H       
  32 H32            1.2808    -1.8265    -0.0765 H       
  33 H33            3.3916    -0.5667    -0.0687 H       
  34 H34            5.0475     5.7972    -0.0373 H       
  35 H35            6.0605     5.0243     2.1012 H       
  36 H36            7.4547     4.3845     1.1989 H       
  37 H37            6.5559     7.3017     1.2262 H       
  38 H38            7.9322     6.6381     2.1404 H       
  39 H39            8.6144     7.7133    -0.0346 H       
  40 H40            9.0543     5.9886     0.0606 H       
  41 H41            7.3891     4.3277    -1.3348 H       
  42 H42            6.0589     5.1644    -2.1762 H       
  43 H43            9.9705     7.7729    -1.6052 H       
  44 H44           11.0831     9.9485    -1.3741 H       
  45 H45            7.4181    11.9560    -2.2523 H       
  46 H46            5.5450     8.9163    -2.7349 H       
  47 H47            5.2273    11.5169    -1.6801 H       
  48 H48            5.6248    11.6577    -3.4094 H       
  49 H49            4.1651    10.7752    -2.9007 H       
@<TRIPOS>BOND
   1    1    2 ar
   2    1    6 ar
   3    1   30 1
   4    2    3 ar
   5    2   31 1
   6    3    4 ar
   7    3   32 1
   8    4    5 ar
   9    4   33 1
  10    5    6 ar
  11    5    7 1
  12    6   27 1
  13    7    8 2
  14    7   11 1
  15    8    9 1
  16    9   10 2
  17    9   12 1
  18   10   11 1
  19   12   13 1
  20   12   17 1
  21   12   34 1
  22   13   14 1
  23   13   35 1
  24   13   36 1
  25   14   15 1
  26   14   37 1
  27   14   38 1
  28   15   16 1
  29   15   39 1
  30   15   40 1
  31   16   17 1
  32   16   18 am
  33   17   41 1
  34   17   42 1
  35   18   19 1
  36   18   20 2
  37   19   21 ar
  38   19   25 ar
  39   21   22 ar
  40   21   43 1
  41   22   23 ar
  42   22   44 1
  43   23   24 ar
  44   23   26 1
  45   24   25 ar
  46   24   45 1
  47   25   28 1
  48   28   29 1
  49   28   46 1
  50   29   47 1
  51   29   48 1
  52   29   49 1

#	End of record

