#	Name: ASD04570005
#	Creating user name:	WinNT
#	Creation time:	15. 06. 2019 20:49

#	Modifying user name:	WinNT
#	Modification time:	15. 06. 2019 20:49

#	Program:	/corina/corina34_cracker 3.40 0067  02.08.2006

@<TRIPOS>MOLECULE
ASD04570005
 283  289    0    0    0
SMALL
NO_CHARGES


@<TRIPOS>ATOM
   1 C1             9.3217    -0.2123     4.5986 C.3     
   2 C2            10.6719     0.5015     4.5072 C.3     
   3 C3            10.4615     1.9151     4.0292 C.2     
   4 N4            11.3056     0.5220     5.8324 N.3     
   5 O5            10.8055     2.8477     4.7239 O.2     
   6 C6             9.5451    -1.6814     4.9632 C.3     
   7 C7             8.1932    -2.3651     5.1767 C.3     
   8 C8            10.2963    -2.3800     3.8281 C.3     
   9 C9            36.7290    -8.9045    31.9895 C.3     
  10 C10           35.8109    -9.1952    30.8006 C.3     
  11 C11           35.0210   -10.4498    31.0709 C.2     
  12 N12           34.8913    -8.0713    30.6074 N.am    
  13 O13           33.8144   -10.4093    31.0993 O.2     
  14 C14           37.6065    -7.7219    31.6691 C.2     
  15 N15           37.3678    -6.4153    32.0001 N.pl3   
  16 C16           38.4009    -5.6875    31.5240 C.2     
  17 N17           39.2394    -6.4909    30.9286 N.2     
  18 C18           38.7790    -7.7482    31.0073 C.2     
  19 C19           10.9629     4.0223     1.6895 C.3     
  20 C20            9.6864     3.5170     2.3648 C.3     
  21 C21            8.5489     3.5490     1.3768 C.2     
  22 N22            9.8909     2.1428     2.8295 N.am    
  23 O23            7.9665     2.5249     1.0892 O.2     
  24 C24            5.7462     4.8591     0.6057 C.3     
  25 C25            7.0731     4.7470    -0.1477 C.3     
  26 C26            7.2342     5.9349    -1.0609 C.2     
  27 N27            8.1789     4.7158     0.8128 N.am    
  28 O28            8.1796     6.6820    -0.9230 O.2     
  29 O29            5.6901     6.1137     1.2876 O.3     
  30 C30            7.3200     7.1122    -4.0565 C.3     
  31 C31            6.4225     7.3802    -2.8468 C.3     
  32 C32            5.0474     7.7764    -3.3194 C.2     
  33 N33            6.3277     6.1672    -2.0308 N.am    
  34 O34            4.1568     6.9538    -3.3515 O.2     
  35 C35            7.5234     8.4115    -4.8384 C.3     
  36 C36            8.3410     9.3918    -3.9948 C.3     
  37 C37            8.2706     8.1121    -6.1396 C.3     
  38 C38            3.3007    10.9653    -3.8594 C.3     
  39 C39            3.4480     9.4564    -4.0655 C.3     
  40 C40            3.1861     9.1188    -5.5106 C.2     
  41 N41            4.8074     9.0449    -3.7064 N.am    
  42 O42            4.0463     8.5891    -6.1724 O.2     
  43 C43            3.4411    11.2882    -2.3941 C.2     
  44 C44            2.4425    11.4291    -1.5082 C.2     
  45 N45            2.9528    11.7211    -0.2727 N.pl3   
  46 C46            4.3271    11.7767    -0.3351 C.ar    
  47 C47            4.6936    11.5017    -1.6651 C.ar    
  48 C48            5.3192    12.0299     0.6068 C.ar    
  49 C49            6.6432    12.0149     0.2269 C.ar    
  50 C50            6.9994    11.7492    -1.0884 C.ar    
  51 C51            6.0422    11.4838    -2.0266 C.ar    
  52 C52           14.1407     4.6878     8.8135 C.3     
  53 C53           14.4632     3.1936     8.7479 C.3     
  54 C54           15.4500     2.8446     9.8320 C.2     
  55 N55           13.2339     2.4199     8.9389 N.am    
  56 O56           15.1555     2.0297    10.6807 O.2     
  57 C57           13.2508     5.0610     7.6560 C.ar    
  58 C58           11.8766     4.9940     7.7924 C.ar    
  59 C59           11.0586     5.3356     6.7328 C.ar    
  60 C60           11.6173     5.7461     5.5311 C.ar    
  61 C61           12.9965     5.8125     5.3968 C.ar    
  62 C62           13.8100     5.4753     6.4612 C.ar    
  63 O63           10.8148     6.0822     4.4871 O.3     
  64 C64           18.4034     1.8495    10.5054 C.3     
  65 C65           17.6192     3.0986    10.9125 C.3     
  66 C66           18.5733     4.2478    11.1123 C.2     
  67 N67           16.6598     3.4379     9.8585 N.am    
  68 O68           18.4628     5.2515    10.4405 O.2     
  69 N69           17.3254    -1.7397     9.9387 N.pl3   
  70 C70           17.8070    -2.9789     9.5884 C.2     
  71 N71           19.0741    -3.1352     9.3259 N.2     
  72 N72           16.9521    -4.0531     9.5152 N.pl3   
  73 C73           17.4521     0.6540    10.4238 C.3     
  74 C74           18.2363    -0.5950    10.0168 C.3     
  75 C75           19.8575     6.2931    13.1941 C.3     
  76 C76           20.4768     5.2775    12.2318 C.3     
  77 C77           21.7700     4.7623    12.8092 C.2     
  78 N78           19.5493     4.1603    12.0376 N.am    
  79 O79           21.8560     3.6071    13.1684 O.2     
  80 S80           18.3989     7.0460    12.4220 S.3     
  81 C81           22.8900     6.9785    12.4609 C.3     
  82 C82           24.2836     7.5272    12.8331 C.3     
  83 C83           24.1239     5.2376    13.5435 C.3     
  84 C84           23.9118     4.3402    14.7354 C.2     
  85 N85           22.8309     5.5852    12.9264 N.am    
  86 O86           22.8242     4.2884    15.2696 O.2     
  87 C87           24.7274     6.5928    13.9895 C.3     
  88 C88           24.1537     1.3819    15.9001 C.3     
  89 C89           24.7246     2.7227    16.3664 C.3     
  90 C90           26.0412     2.4930    17.0628 C.2     
  91 N91           24.9308     3.5951    15.2077 N.am    
  92 O92           27.0521     3.0075    16.6336 O.2     
  93 S93           22.5689     1.6583    15.0618 S.3     
  94 C94           27.6424     2.6399    19.8161 C.3     
  95 C95           27.3750     1.4927    18.8397 C.3     
  96 C96           27.3225     0.1907    19.5967 C.2     
  97 N97           26.0952     1.7160    18.1627 N.am    
  98 O98           26.3152    -0.4843    19.5730 O.2     
  99 N99           28.2566     6.3390    19.2637 N.pl3   
 100 C100          28.5081     7.5130    19.9336 C.2     
 101 N101          28.6591     8.6235    19.2682 N.2     
 102 N102          28.6004     7.5155    21.3053 N.pl3   
 103 C103          27.8196     3.9436    19.0351 C.3     
 104 C104          28.0869     5.0908    20.0115 C.3     
 105 C105          28.6999    -2.6415    20.0943 C.3     
 106 C106          28.3438    -1.4893    21.0360 C.3     
 107 C107          29.3298    -1.4484    22.1749 C.2     
 108 N108          28.3949    -0.2236    20.3001 N.am    
 109 O109          30.0084    -0.4593    22.3542 O.2     
 110 C110          27.6456    -2.7597    19.0241 C.ar    
 111 C111          27.7797    -2.0573    17.8411 C.ar    
 112 C112          26.8126    -2.1657    16.8594 C.ar    
 113 C113          25.7115    -2.9769    17.0605 C.ar    
 114 C114          25.5778    -3.6800    18.2432 C.ar    
 115 C115          26.5471    -3.5750    19.2231 C.ar    
 116 C116          29.7675    -1.7997    25.3136 C.3     
 117 C117          30.4161    -2.4710    24.1014 C.3     
 118 C118          30.8238    -3.8759    24.4636 C.2     
 119 N119          29.4576    -2.5109    22.9942 N.am    
 120 O120          30.3595    -4.8176    23.8567 O.2     
 121 C121          29.4713    -0.3578    24.9906 C.ar    
 122 C122          28.2535    -0.0095    24.4369 C.ar    
 123 C123          27.9819     1.3131    24.1405 C.ar    
 124 C124          28.9279     2.2875    24.3983 C.ar    
 125 C125          30.1453     1.9394    24.9529 C.ar    
 126 C126          30.4153     0.6173    25.2532 C.ar    
 127 C127          33.2475    -5.8999    24.9058 C.3     
 128 C128          32.1009    -5.4514    25.8141 C.3     
 129 C129          32.5544    -5.4882    27.2508 C.2     
 130 N130          31.7045    -4.0857    25.4620 N.am    
 131 O131          32.5472    -4.4736    27.9152 O.2     
 132 C132          32.7511    -5.9824    23.4609 C.3     
 133 C133          33.8804    -6.4241    22.5662 C.2     
 134 O134          34.9704    -6.6499    23.0360 O.2     
 135 O135          33.6753    -6.5668    21.2474 O.3     
 136 C136          32.1939    -6.8566    30.1081 C.3     
 137 C137          33.4088    -6.6845    29.1941 C.3     
 138 C138          34.3548    -7.8406    29.3928 C.2     
 139 N139          32.9679    -6.6487    27.7974 N.am    
 140 O140          34.6333    -8.5635    28.4596 O.2     
 141 O141          31.5942    -8.1313    29.8682 O.3     
 142 C142          11.5152    -0.0199     8.6332 C.3     
 143 C143          11.1660     1.3650     8.0846 C.3     
 144 C144          12.4306     2.1609     7.8882 C.2     
 145 N145          10.4729     1.2214     6.7975 N.3     
 146 O146          12.7253     2.5684     6.7845 O.2     
 147 O147          12.4946    -0.6324     7.7920 O.3     
 148 H148           8.7104     0.2634     5.3654 H       
 149 H149           8.8120    -0.1501     3.6371 H       
 150 H150          11.3158    -0.0276     3.8047 H       
 151 H151          11.5161    -0.4133     6.1470 H       
 152 H152          10.1323    -1.7431     5.8795 H       
 153 H153           7.6060    -2.3034     4.2604 H       
 154 H154           8.3523    -3.4117     5.4365 H       
 155 H155           7.6580    -1.8674     5.9854 H       
 156 H156          11.2595    -1.8929     3.6759 H       
 157 H157          10.4555    -3.4266     4.0878 H       
 158 H158           9.7092    -2.3183     2.9118 H       
 159 H159          36.1249    -8.6810    32.8689 H       
 160 H160          37.3524    -9.7761    32.1888 H       
 161 H161          36.4123    -9.3312    29.9018 H       
 162 H162          35.5340   -11.3852    31.2393 H       
 163 H163          34.6685    -7.4931    31.3537 H       
 164 H164          36.6000    -6.0756    32.4859 H       
 165 H165          38.5142    -4.6178    31.6197 H       
 166 H166          39.2625    -8.6273    30.6075 H       
 167 H167          11.7856     3.9992     2.4041 H       
 168 H168          11.2018     3.3831     0.8395 H       
 169 H169          10.8107     5.0448     1.3437 H       
 170 H170           9.4475     4.1562     3.2147 H       
 171 H171           9.6158     1.3969     2.2739 H       
 172 H172           4.9198     4.7930    -0.1020 H       
 173 H173           5.6700     4.0482     1.3300 H       
 174 H174           7.0791     3.8311    -0.7386 H       
 175 H175           8.6447     5.5350     1.0428 H       
 176 H176           4.8743     6.2535     1.7876 H       
 177 H177           8.2856     6.7377    -3.7167 H       
 178 H178           6.8490     6.3702    -4.7012 H       
 179 H179           6.8481     8.1871    -2.2502 H       
 180 H180           5.6125     5.5312    -2.1886 H       
 181 H181           6.5536     8.8521    -5.0695 H       
 182 H182           9.3370     8.9827    -3.8258 H       
 183 H183           8.4233    10.3429    -4.5208 H       
 184 H184           7.8450     9.5481    -3.0369 H       
 185 H185           7.6882     7.4138    -6.7406 H       
 186 H186           8.4155     9.0377    -6.6966 H       
 187 H187           9.2404     7.6715    -5.9085 H       
 188 H188           4.0754    11.4861    -4.4222 H       
 189 H189           2.3195    11.2857    -4.2097 H       
 190 H190           2.7309     8.9317    -3.4341 H       
 191 H191           2.2292     9.3506    -5.9545 H       
 192 H192           5.5347     9.6854    -3.7473 H       
 193 H193           1.3919    11.3277    -1.7370 H       
 194 H194           2.4249    11.8676     0.5278 H       
 195 H195           5.0522    12.2380     1.6324 H       
 196 H196           7.4118    12.2121     0.9595 H       
 197 H197           8.0421    11.7415    -1.3699 H       
 198 H198           6.3269    11.2759    -3.0474 H       
 199 H199          13.6296     4.9084     9.7506 H       
 200 H200          15.0658     5.2618     8.7604 H       
 201 H201          14.8938     2.9573     7.7748 H       
 202 H202          12.9982     2.0940     9.8216 H       
 203 H203          11.4422     4.6740     8.7280 H       
 204 H204           9.9853     5.2827     6.8397 H       
 205 H205          13.4338     6.1318     4.4623 H       
 206 H206          14.8836     5.5310     6.3586 H       
 207 H207          10.5692     7.0172     4.4649 H       
 208 H208          18.8665     2.0124     9.5322 H       
 209 H209          19.1768     1.6485    11.2467 H       
 210 H210          17.0841     2.9047    11.8421 H       
 211 H211          16.8954     4.0896     9.1798 H       
 212 H212          16.3824    -1.6233    10.1340 H       
 213 H213          19.4139    -4.0095     9.0788 H       
 214 H214          16.0091    -3.9367     9.7105 H       
 215 H215          17.2919    -4.9274     9.2681 H       
 216 H216          16.9890     0.4912    11.3970 H       
 217 H217          16.6787     0.8551     9.6825 H       
 218 H218          19.0097    -0.7961    10.7581 H       
 219 H219          18.6994    -0.4321     9.0436 H       
 220 H220          19.5621     5.7887    14.1140 H       
 221 H221          20.5882     7.0687    13.4235 H       
 222 H222          20.6728     5.7579    11.2732 H       
 223 H223          19.6377     3.3576    12.5749 H       
 224 H224          17.9655     7.9020    13.3647 H       
 225 H225          22.1162     7.5672    12.9536 H       
 226 H226          22.7541     7.0143    11.3800 H       
 227 H227          24.9678     7.4471    11.9884 H       
 228 H228          24.2126     8.5591    13.1768 H       
 229 H229          24.7736     4.7525    12.8150 H       
 230 H230          25.8142     6.5354    14.0502 H       
 231 H231          24.3012     6.9167    14.9390 H       
 232 H232          24.8525     0.9098    15.2096 H       
 233 H233          24.0003     0.7328    16.7622 H       
 234 H234          24.0258     3.1948    17.0569 H       
 235 H235          25.8006     3.6365    14.7804 H       
 236 H236          22.1906     0.4158    14.7125 H       
 237 H237          26.7999     2.7382    20.5007 H       
 238 H238          28.5491     2.4302    20.3836 H       
 239 H239          28.1748     1.4511    18.1003 H       
 240 H240          25.2866     1.3045    18.5060 H       
 241 H241          28.1915     6.3373    18.2959 H       
 242 H242          28.8366     9.4518    19.7409 H       
 243 H243          28.4881     6.6890    21.8005 H       
 244 H244          28.7779     8.3437    21.7780 H       
 245 H245          28.6621     3.8453    18.3505 H       
 246 H246          26.9129     4.1533    18.4676 H       
 247 H247          28.9936     4.8811    20.5790 H       
 248 H248          27.2444     5.1890    20.6961 H       
 249 H249          29.6673    -2.4466    19.6314 H       
 250 H250          28.7489    -3.5716    20.6605 H       
 251 H251          27.3390    -1.6399    21.4305 H       
 252 H252          29.2006     0.3163    20.3190 H       
 253 H253          28.6400    -1.4235    17.6839 H       
 254 H254          26.9170    -1.6164    15.9354 H       
 255 H255          24.9555    -3.0611    16.2938 H       
 256 H256          24.7173    -4.3135    18.4004 H       
 257 H257          26.4445    -4.1272    20.1455 H       
 258 H258          28.8392    -2.3147    25.5607 H       
 259 H259          30.4479    -1.8492    26.1637 H       
 260 H260          31.2965    -1.9036    23.7996 H       
 261 H261          28.9149    -3.3019    22.8507 H       
 262 H262          27.5144    -0.7708    24.2354 H       
 263 H263          27.0307     1.5850    23.7073 H       
 264 H264          28.7160     3.3207    24.1661 H       
 265 H265          30.8846     2.7006    25.1540 H       
 266 H266          31.3650     0.3458    25.6899 H       
 267 H267          34.0638    -5.1805    24.9690 H       
 268 H268          33.6016    -6.8802    25.2248 H       
 269 H269          31.2510    -6.1214    25.6841 H       
 270 H270          32.0759    -3.3325    25.9474 H       
 271 H271          31.9347    -6.7018    23.3977 H       
 272 H272          32.3970    -5.0021    23.1419 H       
 273 H273          34.4298    -6.8523    20.7141 H       
 274 H274          32.5108    -6.7943    31.1491 H       
 275 H275          31.4691    -6.0693    29.9011 H       
 276 H276          33.9181    -5.7522    29.4383 H       
 277 H277          32.9737    -7.4602    27.2661 H       
 278 H278          30.8162    -8.3089    30.4143 H       
 279 H279          11.9141     0.0791     9.6427 H       
 280 H280          10.6179    -0.6384     8.6561 H       
 281 H281          10.5170     1.8826     8.7910 H       
 282 H282          10.1826     2.1196     6.4409 H       
 283 H283          12.7639    -1.5153     8.0802 H       
@<TRIPOS>BOND
   1    1    6 1
   2    1    2 1
   3    1  148 1
   4    1  149 1
   5    2    4 1
   6    2    3 1
   7    2  150 1
   8    3    5 2
   9    3   22 am
  10    4  145 1
  11    4  151 1
  12    6    7 1
  13    6    8 1
  14    6  152 1
  15    7  153 1
  16    7  154 1
  17    7  155 1
  18    8  156 1
  19    8  157 1
  20    8  158 1
  21    9   14 1
  22    9   10 1
  23    9  159 1
  24    9  160 1
  25   10   11 1
  26   10   12 1
  27   10  161 1
  28   11   13 2
  29   11  162 1
  30   12  138 am
  31   12  163 1
  32   14   15 1
  33   14   18 2
  34   15   16 1
  35   15  164 1
  36   16   17 2
  37   16  165 1
  38   17   18 1
  39   18  166 1
  40   19   20 1
  41   19  167 1
  42   19  168 1
  43   19  169 1
  44   20   21 1
  45   20   22 1
  46   20  170 1
  47   21   23 2
  48   21   27 am
  49   22  171 1
  50   24   29 1
  51   24   25 1
  52   24  172 1
  53   24  173 1
  54   25   27 1
  55   25   26 1
  56   25  174 1
  57   26   28 2
  58   26   33 am
  59   27  175 1
  60   29  176 1
  61   30   35 1
  62   30   31 1
  63   30  177 1
  64   30  178 1
  65   31   33 1
  66   31   32 1
  67   31  179 1
  68   32   34 2
  69   32   41 am
  70   33  180 1
  71   35   36 1
  72   35   37 1
  73   35  181 1
  74   36  182 1
  75   36  183 1
  76   36  184 1
  77   37  185 1
  78   37  186 1
  79   37  187 1
  80   38   43 1
  81   38   39 1
  82   38  188 1
  83   38  189 1
  84   39   40 1
  85   39   41 1
  86   39  190 1
  87   40   42 2
  88   40  191 1
  89   41  192 1
  90   43   44 2
  91   43   47 1
  92   44   45 1
  93   44  193 1
  94   45   46 1
  95   45  194 1
  96   46   47 ar
  97   46   48 ar
  98   47   51 ar
  99   48   49 ar
 100   48  195 1
 101   49   50 ar
 102   49  196 1
 103   50   51 ar
 104   50  197 1
 105   51  198 1
 106   52   57 1
 107   52   53 1
 108   52  199 1
 109   52  200 1
 110   53   54 1
 111   53   55 1
 112   53  201 1
 113   54   56 2
 114   54   67 am
 115   55  144 am
 116   55  202 1
 117   57   58 ar
 118   57   62 ar
 119   58   59 ar
 120   58  203 1
 121   59   60 ar
 122   59  204 1
 123   60   61 ar
 124   60   63 1
 125   61   62 ar
 126   61  205 1
 127   62  206 1
 128   63  207 1
 129   64   73 1
 130   64   65 1
 131   64  208 1
 132   64  209 1
 133   65   67 1
 134   65   66 1
 135   65  210 1
 136   66   68 2
 137   66   78 am
 138   67  211 1
 139   69   74 1
 140   69   70 1
 141   69  212 1
 142   70   71 2
 143   70   72 1
 144   71  213 1
 145   72  214 1
 146   72  215 1
 147   73   74 1
 148   73  216 1
 149   73  217 1
 150   74  218 1
 151   74  219 1
 152   75   80 1
 153   75   76 1
 154   75  220 1
 155   75  221 1
 156   76   77 1
 157   76   78 1
 158   76  222 1
 159   77   79 2
 160   77   85 am
 161   78  223 1
 162   80  224 1
 163   81   85 1
 164   81   82 1
 165   81  225 1
 166   81  226 1
 167   82   87 1
 168   82  227 1
 169   82  228 1
 170   83   85 1
 171   83   84 1
 172   83   87 1
 173   83  229 1
 174   84   86 2
 175   84   91 am
 176   87  230 1
 177   87  231 1
 178   88   93 1
 179   88   89 1
 180   88  232 1
 181   88  233 1
 182   89   90 1
 183   89   91 1
 184   89  234 1
 185   90   92 2
 186   90   97 am
 187   91  235 1
 188   93  236 1
 189   94  103 1
 190   94   95 1
 191   94  237 1
 192   94  238 1
 193   95   97 1
 194   95   96 1
 195   95  239 1
 196   96   98 2
 197   96  108 am
 198   97  240 1
 199   99  104 1
 200   99  100 1
 201   99  241 1
 202  100  101 2
 203  100  102 1
 204  101  242 1
 205  102  243 1
 206  102  244 1
 207  103  104 1
 208  103  245 1
 209  103  246 1
 210  104  247 1
 211  104  248 1
 212  105  110 1
 213  105  106 1
 214  105  249 1
 215  105  250 1
 216  106  107 1
 217  106  108 1
 218  106  251 1
 219  107  109 2
 220  107  119 am
 221  108  252 1
 222  110  111 ar
 223  110  115 ar
 224  111  112 ar
 225  111  253 1
 226  112  113 ar
 227  112  254 1
 228  113  114 ar
 229  113  255 1
 230  114  115 ar
 231  114  256 1
 232  115  257 1
 233  116  121 1
 234  116  117 1
 235  116  258 1
 236  116  259 1
 237  117  118 1
 238  117  119 1
 239  117  260 1
 240  118  120 2
 241  118  130 am
 242  119  261 1
 243  121  122 ar
 244  121  126 ar
 245  122  123 ar
 246  122  262 1
 247  123  124 ar
 248  123  263 1
 249  124  125 ar
 250  124  264 1
 251  125  126 ar
 252  125  265 1
 253  126  266 1
 254  127  132 1
 255  127  128 1
 256  127  267 1
 257  127  268 1
 258  128  130 1
 259  128  129 1
 260  128  269 1
 261  129  131 2
 262  129  139 am
 263  130  270 1
 264  132  133 1
 265  132  271 1
 266  132  272 1
 267  133  134 2
 268  133  135 1
 269  135  273 1
 270  136  141 1
 271  136  137 1
 272  136  274 1
 273  136  275 1
 274  137  139 1
 275  137  138 1
 276  137  276 1
 277  138  140 2
 278  139  277 1
 279  141  278 1
 280  142  147 1
 281  142  143 1
 282  142  279 1
 283  142  280 1
 284  143  145 1
 285  143  144 1
 286  143  281 1
 287  144  146 2
 288  145  282 1
 289  147  283 1

#	End of record

