#	Name: ASD02198313
#	Creating user name:	WinNT
#	Creation time:	15. 06. 2019 20:19

#	Modifying user name:	WinNT
#	Modification time:	15. 06. 2019 20:19

#	Program:	/corina/corina34_cracker 3.40 0067  02.08.2006

@<TRIPOS>MOLECULE
ASD02198313
  41   43    0    0    0
SMALL
NO_CHARGES


@<TRIPOS>ATOM
   1 C1             0.5437     1.5476     0.0714 C.2     
   2 C2             0.7080     0.1769     0.1401 C.2     
   3 S3             2.1234     2.2889     0.3140 S.3     
   4 C4             2.8400     0.7468     0.4804 C.2     
   5 N5             1.9480    -0.1936     0.3591 N.2     
   6 N6            -0.3374    -0.7210    -0.0078 N.pl3   
   7 C7            -0.6677     2.2290    -0.1574 C.2     
   8 C8            -0.7152     3.7036    -0.0648 C.ar    
   9 O9            -1.6772     1.6024    -0.4319 O.2     
  10 N10            4.1807     0.5280     0.7122 N.pl3   
  11 C11            4.6443    -0.7625     0.9511 C.ar    
  12 C12            5.9535    -1.1023     0.6217 C.ar    
  13 C13           -1.6470     4.4226    -0.8168 C.ar    
  14 C14            0.1677     4.3809     0.7793 C.ar    
  15 C15            0.1201     5.7549     0.8633 C.ar    
  16 C16           -0.8052     6.4672     0.1099 C.ar    
  17 C17           -1.6885     5.7965    -0.7275 C.ar    
  18 C18            6.4149    -2.3772     0.8566 C.ar    
  19 C19            5.5673    -3.3318     1.4273 C.ar    
  20 C20            4.2529    -2.9870     1.7575 C.ar    
  21 C21            3.7994    -1.7089     1.5244 C.ar    
  22 C22            6.0580    -4.6987     1.6800 C.2     
  23 O23            5.2399    -5.6174     2.2301 O.3     
  24 O24            7.2003    -4.9971     1.3922 O.2     
  25 O25           -0.8498     7.8213     0.1959 O.3     
  26 C26           -1.8251     8.4906    -0.6058 C.3     
  27 H27           -1.2371    -0.3957    -0.1680 H       
  28 H28           -0.1694    -1.6746     0.0490 H       
  29 H29            4.8014     1.2735     0.7088 H       
  30 H30            6.6076    -0.3646     0.1809 H       
  31 H31           -2.3337     3.9021    -1.4678 H       
  32 H32            0.8866     3.8279     1.3657 H       
  33 H33            0.8025     6.2793     1.5158 H       
  34 H34           -2.4060     6.3535    -1.3118 H       
  35 H35            7.4305    -2.6404     0.6001 H       
  36 H36            3.5955    -3.7219     2.1981 H       
  37 H37            2.7844    -1.4418     1.7791 H       
  38 H38            5.6066    -6.5001     2.3767 H       
  39 H39           -1.6442     8.2698    -1.6578 H       
  40 H40           -2.8215     8.1465    -0.3285 H       
  41 H41           -1.7536     9.5659    -0.4427 H       
@<TRIPOS>BOND
   1    1    2 2
   2    1    3 1
   3    1    7 1
   4    2    6 1
   5    2    5 1
   6    3    4 1
   7    4    5 2
   8    4   10 1
   9    6   27 1
  10    6   28 1
  11    7    8 1
  12    7    9 2
  13    8   13 ar
  14    8   14 ar
  15   10   11 1
  16   10   29 1
  17   11   12 ar
  18   11   21 ar
  19   12   18 ar
  20   12   30 1
  21   13   17 ar
  22   13   31 1
  23   14   15 ar
  24   14   32 1
  25   15   16 ar
  26   15   33 1
  27   16   17 ar
  28   16   25 1
  29   17   34 1
  30   18   19 ar
  31   18   35 1
  32   19   20 ar
  33   19   22 1
  34   20   21 ar
  35   20   36 1
  36   21   37 1
  37   22   23 1
  38   22   24 2
  39   23   38 1
  40   25   26 1
  41   26   39 1
  42   26   40 1
  43   26   41 1

#	End of record

