#	Name: ASD01813965
#	Creating user name:	WinNT
#	Creation time:	15. 06. 2019 19:31

#	Modifying user name:	WinNT
#	Modification time:	15. 06. 2019 19:31

#	Program:	/corina/corina34_cracker 3.40 0067  02.08.2006

@<TRIPOS>MOLECULE
ASD01813965
  37   40    0    0    0
SMALL
NO_CHARGES


@<TRIPOS>ATOM
   1 C1            -0.0169     1.3922     0.0097 C.ar    
   2 C2             0.0021    -0.0041     0.0020 C.ar    
   3 C3             1.2425    -0.6793    -0.0135 C.ar    
   4 C4             2.4322     0.0460    -0.0218 C.ar    
   5 C5             2.3877     1.4229    -0.0149 C.ar    
   6 C6             1.1697     2.0902     0.0021 C.ar    
   7 C7             1.2279    -2.1497    -0.0207 C.2     
   8 N8            -1.1430    -0.7314     0.0095 N.2     
   9 C9            -1.1247    -2.0297     0.0028 C.2     
  10 N10            0.0203    -2.7608    -0.0121 N.am    
  11 C11           -0.0529    -4.2239    -0.0187 C.3     
  12 C12           -1.2661    -4.9060     2.0611 C.ar    
  13 C13           -0.0642    -4.7328     1.3997 C.ar    
  14 C14            1.1275    -5.0260     2.0370 C.ar    
  15 C15           -1.2797    -5.3726     3.3610 C.ar    
  16 C16           -0.0849    -5.6683     4.0034 C.ar    
  17 C17            1.1203    -5.4934     3.3367 C.ar    
  18 N18           -0.0954    -6.1421     5.3227 N.pl3   
  19 O19            2.2616    -2.7923    -0.0344 O.2     
  20 C20            0.9907    -6.4612     6.0624 C.2     
  21 C21            0.5557    -6.8758     7.2749 C.2     
  22 C22           -0.8419    -6.8083     7.2773 C.2     
  23 N23           -1.2326    -6.3632     6.1103 N.2     
  24 H24           -0.9579     1.9220     0.0170 H       
  25 H25            3.3822    -0.4675    -0.0333 H       
  26 H26            3.3078     1.9883    -0.0210 H       
  27 H27            1.1533     3.1700     0.0077 H       
  28 H28           -2.0682    -2.5553     0.0093 H       
  29 H29           -0.9649    -4.5398    -0.5253 H       
  30 H30            0.8128    -4.6286    -0.5431 H       
  31 H31           -2.1949    -4.6716     1.5623 H       
  32 H32            2.0647    -4.8897     1.5179 H       
  33 H33           -2.2187    -5.5074     3.8772 H       
  34 H34            2.0512    -5.7229     3.8338 H       
  35 H35            2.0203    -6.3969     5.7428 H       
  36 H36            1.1775    -7.2016     8.0956 H       
  37 H37           -1.4869    -7.0738     8.1019 H       
@<TRIPOS>BOND
   1    1    2 ar
   2    1    6 ar
   3    1   24 1
   4    2    3 ar
   5    2    8 1
   6    3    4 ar
   7    3    7 1
   8    4    5 ar
   9    4   25 1
  10    5    6 ar
  11    5   26 1
  12    6   27 1
  13    7   10 am
  14    7   19 2
  15    8    9 2
  16    9   10 1
  17    9   28 1
  18   10   11 1
  19   11   13 1
  20   11   29 1
  21   11   30 1
  22   12   15 ar
  23   12   13 ar
  24   12   31 1
  25   13   14 ar
  26   14   17 ar
  27   14   32 1
  28   15   16 ar
  29   15   33 1
  30   16   17 ar
  31   16   18 1
  32   17   34 1
  33   18   23 1
  34   18   20 1
  35   20   21 2
  36   20   35 1
  37   21   22 1
  38   21   36 1
  39   22   23 2
  40   22   37 1

#	End of record

