#	Name: ASD01881124
#	Creating user name:	WinNT
#	Creation time:	15. 06. 2019 19:42

#	Modifying user name:	WinNT
#	Modification time:	15. 06. 2019 19:42

#	Program:	/corina/corina34_cracker 3.40 0067  02.08.2006

@<TRIPOS>MOLECULE
ASD01881124
  41   43    0    0    0
SMALL
NO_CHARGES


@<TRIPOS>ATOM
   1 N1            -0.0158     1.3136     0.0093 N.ar    
   2 C2             0.0021    -0.0041     0.0020 C.ar    
   3 N3             1.1321    -0.6824    -0.0120 N.ar    
   4 C4             2.2981    -0.0570    -0.0197 C.ar    
   5 C5             2.3199     1.3290    -0.0130 C.ar    
   6 C6             1.1114     2.0071     0.0022 C.ar    
   7 C7             3.6262     2.0803    -0.0209 C.3     
   8 O8             3.3675     3.4856    -0.0115 O.3     
   9 C9             4.4452     4.3105    -0.0170 C.ar    
  10 C10            4.2641     5.6906    -0.0084 C.ar    
  11 C11            5.3541     6.5246    -0.0136 C.ar    
  12 C12            6.6496     5.9966    -0.0274 C.ar    
  13 C13            6.8267     4.6089    -0.0360 C.ar    
  14 C14            5.7274     3.7764    -0.0254 C.ar    
  15 C15            5.5063     8.0253    -0.0068 C.3     
  16 N16            6.9494     8.2905    -0.0176 N.am    
  17 C17            7.6048     7.1171    -0.0294 C.2     
  18 O18            8.8149     6.9979    -0.0400 O.2     
  19 C19           -1.3043    -0.7553     0.0105 C.3     
  20 C20            3.5851    -0.8409    -0.0352 C.3     
  21 Cl21           8.4270     3.9363    -0.0537 Cl      
  22 C22            7.8027    10.0692     1.4280 C.3     
  23 C23            7.5732     9.6160    -0.0153 C.3     
  24 H24            1.0898     3.0868     0.0075 H       
  25 H25            4.2053     1.8115     0.8626 H       
  26 H26            4.1893     1.8205    -0.9173 H       
  27 H27            3.2668     6.1047     0.0019 H       
  28 H28            5.8639     2.7051    -0.0317 H       
  29 H29            5.0400     8.4533    -0.8942 H       
  30 H30            5.0551     8.4437     0.8930 H       
  31 H31           -1.6291    -0.9309    -1.0151 H       
  32 H32           -1.1707    -1.7107     0.5179 H       
  33 H33           -2.0580    -0.1677     0.5347 H       
  34 H34            3.8860    -1.0251    -1.0666 H       
  35 H35            4.3631    -0.2722     0.4741 H       
  36 H36            3.4372    -1.7924     0.4755 H       
  37 H37            6.8472    10.1164     1.9503 H       
  38 H38            8.4576     9.3585     1.9321 H       
  39 H39            8.2669    11.0554     1.4297 H       
  40 H40            8.5288     9.5688    -0.5375 H       
  41 H41            6.9183    10.3267    -0.5194 H       
@<TRIPOS>BOND
   1    1    2 ar
   2    1    6 ar
   3    2    3 ar
   4    2   19 1
   5    3    4 ar
   6    4    5 ar
   7    4   20 1
   8    5    6 ar
   9    5    7 1
  10    6   24 1
  11    7    8 1
  12    7   25 1
  13    7   26 1
  14    8    9 1
  15    9   10 ar
  16    9   14 ar
  17   10   11 ar
  18   10   27 1
  19   11   12 ar
  20   11   15 1
  21   12   13 ar
  22   12   17 1
  23   13   14 ar
  24   13   21 1
  25   14   28 1
  26   15   16 1
  27   15   29 1
  28   15   30 1
  29   16   17 am
  30   16   23 1
  31   17   18 2
  32   19   31 1
  33   19   32 1
  34   19   33 1
  35   20   34 1
  36   20   35 1
  37   20   36 1
  38   22   23 1
  39   22   37 1
  40   22   38 1
  41   22   39 1
  42   23   40 1
  43   23   41 1

#	End of record

