#	Name: ASD01890261
#	Creating user name:	WinNT
#	Creation time:	15. 06. 2019 19:50

#	Modifying user name:	WinNT
#	Modification time:	15. 06. 2019 19:50

#	Program:	/corina/corina34_cracker 3.40 0067  02.08.2006

@<TRIPOS>MOLECULE
ASD01890261
  41   42    0    0    0
SMALL
NO_CHARGES


@<TRIPOS>ATOM
   1 C1            -0.0303     1.4534    -0.0401 C.2     
   2 C2            -0.0045    -0.0087    -0.0488 C.2     
   3 C3             1.1740    -0.6622    -0.1145 C.2     
   4 C4             2.4493     0.1057    -0.3495 C.3     
   5 C5             3.0808     0.4693     0.9958 C.3     
   6 O6             1.0105     2.0796     0.0196 O.2     
   7 O7            -1.2085     2.1075    -0.1040 O.3     
   8 C8             1.2142    -2.1249     0.0431 C.ar    
   9 C9             0.5991    -2.9510    -0.9030 C.ar    
  10 C10            0.6416    -4.3205    -0.7485 C.ar    
  11 C11            1.2903    -4.8780     0.3396 C.ar    
  12 C12            1.9010    -4.0672     1.2804 C.ar    
  13 C13            1.8727    -2.6962     1.1367 C.ar    
  14 C14            4.3561     1.2372     0.7609 C.ar    
  15 C15            4.3129     2.6069     0.5614 C.ar    
  16 C16            5.4848     3.3114     0.3462 C.ar    
  17 C17            6.6976     2.6466     0.3307 C.ar    
  18 C18            6.7389     1.2784     0.5296 C.ar    
  19 C19            5.5691     0.5754     0.7503 C.ar    
  20 F20            3.1277     3.2551     0.5764 F       
  21 Br21           8.2991     3.6080     0.0367 Br      
  22 C22           -1.1591     3.5356    -0.0913 C.3     
  23 C23           -2.5807     4.0958    -0.1699 C.3     
  24 H24           -0.9288    -0.5655    -0.0025 H       
  25 H25            3.1434    -0.5093    -0.9223 H       
  26 H26            2.2276     1.0170    -0.9049 H       
  27 H27            2.3867     1.0842     1.5687 H       
  28 H28            3.3025    -0.4420     1.5513 H       
  29 H29            0.0919    -2.5174    -1.7522 H       
  30 H30            0.1670    -4.9598    -1.4783 H       
  31 H31            1.3198    -5.9514     0.4552 H       
  32 H32            2.4047    -4.5097     2.1271 H       
  33 H33            2.3536    -2.0649     1.8693 H       
  34 H34            5.4522     4.3796     0.1901 H       
  35 H35            7.6861     0.7597     0.5171 H       
  36 H36            5.6030    -0.4921     0.9103 H       
  37 H37           -0.6855     3.8746     0.8301 H       
  38 H38           -0.5823     3.8869    -0.9468 H       
  39 H39           -2.5430     5.1851    -0.1602 H       
  40 H40           -3.0543     3.7569    -1.0913 H       
  41 H41           -3.1575     3.7446     0.6856 H       
@<TRIPOS>BOND
   1    1    2 1
   2    1    6 2
   3    1    7 1
   4    2    3 2
   5    2   24 1
   6    3    4 1
   7    3    8 1
   8    4    5 1
   9    4   25 1
  10    4   26 1
  11    5   14 1
  12    5   27 1
  13    5   28 1
  14    7   22 1
  15    8    9 ar
  16    8   13 ar
  17    9   10 ar
  18    9   29 1
  19   10   11 ar
  20   10   30 1
  21   11   12 ar
  22   11   31 1
  23   12   13 ar
  24   12   32 1
  25   13   33 1
  26   14   15 ar
  27   14   19 ar
  28   15   16 ar
  29   15   20 1
  30   16   17 ar
  31   16   34 1
  32   17   18 ar
  33   17   21 1
  34   18   19 ar
  35   18   35 1
  36   19   36 1
  37   22   23 1
  38   22   37 1
  39   22   38 1
  40   23   39 1
  41   23   40 1
  42   23   41 1

#	End of record

