#	Name: ASD01890289
#	Creating user name:	WinNT
#	Creation time:	15. 06. 2019 19:50

#	Modifying user name:	WinNT
#	Modification time:	15. 06. 2019 19:50

#	Program:	/corina/corina34_cracker 3.40 0067  02.08.2006

@<TRIPOS>MOLECULE
ASD01890289
  49   51    0    0    0
SMALL
NO_CHARGES


@<TRIPOS>ATOM
   1 C1            -0.0166     1.3743     0.0096 C.ar    
   2 C2             0.0021    -0.0041     0.0020 C.ar    
   3 C3            -1.1945    -0.7081     0.0101 C.ar    
   4 C4            -2.4150    -0.0121     0.0260 C.ar    
   5 C5            -2.4094     1.3853     0.0330 C.ar    
   6 C6            -1.2223     2.0612     0.0306 C.ar    
   7 N7            -1.5208    -2.0495     0.0066 N.pl3   
   8 C8            -2.8784    -2.1356     0.0199 C.2     
   9 N9            -3.4019    -0.9446     0.0312 N.2     
  10 C10           -3.6617    -3.4231     0.0208 C.3     
  11 C11            1.2811     2.1404     0.0013 C.3     
  12 C12            2.0750     1.7853    -1.2575 C.3     
  13 C13            0.9871     3.6419     0.0122 C.3     
  14 C14            2.0988     1.7719     1.2408 C.3     
  15 C15           -4.6217    -3.4351     1.2121 C.3     
  16 C16           -5.6631    -2.3277     1.0392 C.3     
  17 C17           -5.3159    -4.7707     1.2844 C.ar    
  18 C18           -5.1764    -5.5619     2.4094 C.ar    
  19 C19           -5.8129    -6.7870     2.4763 C.ar    
  20 C20           -6.5896    -7.2214     1.4170 C.ar    
  21 C21           -6.7288    -6.4291     0.2913 C.ar    
  22 C22           -6.0964    -5.2018     0.2280 C.ar    
  23 Cl23          -7.3888    -8.7603     1.5000 Cl      
  24 C24           -6.5324    -2.2592     2.2683 C.2     
  25 O25           -6.3388    -3.0183     3.1882 O.2     
  26 O26           -7.5218    -1.3550     2.3411 O.3     
  27 H27            0.9431    -0.5338    -0.0105 H       
  28 H28           -3.3419     1.9299     0.0452 H       
  29 H29           -1.2221     3.1412     0.0364 H       
  30 H30           -0.8976    -2.7927    -0.0039 H       
  31 H31           -4.2310    -3.5026    -0.9053 H       
  32 H32           -2.9752    -4.2661     0.0988 H       
  33 H33            1.4924     2.0478    -2.1405 H       
  34 H34            3.0136     2.3394    -1.2635 H       
  35 H35            2.2844     0.7156    -1.2652 H       
  36 H36            0.4215     3.8948     0.9090 H       
  37 H37            1.9257     4.1960     0.0062 H       
  38 H38            0.4045     3.9044    -0.8709 H       
  39 H39            2.3083     0.7022     1.2331 H       
  40 H40            3.0374     2.3260     1.2349 H       
  41 H41            1.5333     2.0249     2.1376 H       
  42 H42           -4.0614    -3.2666     2.1318 H       
  43 H43           -5.1576    -1.3724     0.8980 H       
  44 H44           -6.2818    -2.5437     0.1681 H       
  45 H45           -4.5698    -5.2229     3.2361 H       
  46 H46           -5.7036    -7.4052     3.3551 H       
  47 H47           -7.3350    -6.7677    -0.5358 H       
  48 H48           -6.2050    -4.5832    -0.6506 H       
  49 H49           -8.0526    -1.3492     3.1493 H       
@<TRIPOS>BOND
   1    1    2 ar
   2    1   11 1
   3    1    6 ar
   4    2    3 ar
   5    2   27 1
   6    3    4 ar
   7    3    7 1
   8    4    5 ar
   9    4    9 1
  10    5    6 ar
  11    5   28 1
  12    6   29 1
  13    7    8 1
  14    7   30 1
  15    8    9 2
  16    8   10 1
  17   10   15 1
  18   10   31 1
  19   10   32 1
  20   11   12 1
  21   11   13 1
  22   11   14 1
  23   12   33 1
  24   12   34 1
  25   12   35 1
  26   13   36 1
  27   13   37 1
  28   13   38 1
  29   14   39 1
  30   14   40 1
  31   14   41 1
  32   15   16 1
  33   15   17 1
  34   15   42 1
  35   16   24 1
  36   16   43 1
  37   16   44 1
  38   17   18 ar
  39   17   22 ar
  40   18   19 ar
  41   18   45 1
  42   19   20 ar
  43   19   46 1
  44   20   21 ar
  45   20   23 1
  46   21   22 ar
  47   21   47 1
  48   22   48 1
  49   24   25 2
  50   24   26 1
  51   26   49 1

#	End of record

