#	Name: ASD04882137
#	Creating user name:	WinNT
#	Creation time:	15. 06. 2019 20:54

#	Modifying user name:	WinNT
#	Modification time:	15. 06. 2019 20:54

#	Program:	/corina/corina34_cracker 3.40 0067  02.08.2006

@<TRIPOS>MOLECULE
ASD04882137
  68   71    0    0    0
SMALL
NO_CHARGES


@<TRIPOS>ATOM
   1 C1            -0.4601     1.4434    -0.7055 C.2     
   2 C2            -0.3546     0.0091    -0.4199 C.2     
   3 O3             0.6652    -0.4407     0.0691 O.2     
   4 N4            -1.3870    -0.8112    -0.6987 N.am    
   5 C5            -1.2481    -2.1948    -0.5284 C.ar    
   6 C6            -2.3460    -2.9647    -0.1331 C.ar    
   7 C7            -2.2097    -4.3375     0.0358 C.ar    
   8 C8            -0.9930    -4.9444    -0.1855 C.ar    
   9 C9             0.1084    -4.1808    -0.5808 C.ar    
  10 C10           -0.0272    -2.8004    -0.7565 C.ar    
  11 N11           -3.5776    -2.3554     0.0922 N.3     
  12 C12           -3.5181    -1.4624     1.2578 C.3     
  13 C13           -4.8644    -0.7536     1.4234 C.3     
  14 N14           -5.9263    -1.7564     1.5856 N.3     
  15 C15           -5.9859    -2.6494     0.4200 C.3     
  16 C16           -4.6396    -3.3582     0.2543 C.3     
  17 C17           -7.1617    -1.1451     1.8115 C.ar    
  18 C18           -7.3846    -0.4391     2.9872 C.ar    
  19 C19           -9.6089     0.0662     2.2589 C.ar    
  20 C20           -8.1683    -1.2369     0.8589 C.ar    
  21 C21           -8.6069     0.1643     3.2071 C.ar    
  22 C22           -9.3886    -0.6308     1.0853 C.ar    
  23 C23            1.4114    -4.8310    -0.8173 C.2     
  24 N24            1.5400    -6.1624    -0.6521 N.am    
  25 O25            2.3694    -4.1656    -1.1612 O.2     
  26 C26            2.8340    -6.8080    -0.8870 C.3     
  27 C27            2.7078    -8.3112    -0.6311 C.3     
  28 C28           -6.2937    -0.3325     4.0214 C.3     
  29 C29            0.5054     2.3809    -0.4736 C.2     
  30 C30           -0.0187     3.6129    -0.8954 C.2     
  31 C31           -1.2653     3.3764    -1.3603 C.2     
  32 O32           -1.5257     2.0673    -1.2490 O.3     
  33 N33            4.0052    -8.9586    -0.8666 N.3     
  34 C34            3.9887   -10.3536    -0.4065 C.3     
  35 C35            4.3854    -8.8759    -2.2831 C.3     
  36 H36           -2.2262    -0.4436    -1.0174 H       
  37 H37           -3.0595    -4.9297     0.3416 H       
  38 H38           -0.8902    -6.0113    -0.0530 H       
  39 H39            0.8212    -2.2083    -1.0662 H       
  40 H40           -3.3020    -2.0462     2.1525 H       
  41 H41           -2.7329    -0.7213     1.1084 H       
  42 H42           -4.8319    -0.1126     2.3044 H       
  43 H43           -5.0677    -0.1482     0.5401 H       
  44 H44           -6.7711    -3.3905     0.5694 H       
  45 H45           -6.2020    -2.0655    -0.4748 H       
  46 H46           -4.6720    -3.9992    -0.6266 H       
  47 H47           -4.4362    -3.9636     1.1377 H       
  48 H48          -10.5642     0.5389     2.4336 H       
  49 H49           -7.9968    -1.7811    -0.0581 H       
  50 H50           -8.7808     0.7133     4.1208 H       
  51 H51          -10.1732    -0.7055     0.3469 H       
  52 H52            0.7759    -6.6931    -0.3777 H       
  53 H53            3.1420    -6.6397    -1.9189 H       
  54 H54            3.5785    -6.3858    -0.2121 H       
  55 H55            2.3997    -8.4795     0.4008 H       
  56 H56            1.9632    -8.7334    -1.3060 H       
  57 H57           -5.7342     0.5899     3.8656 H       
  58 H58           -6.7366    -0.3250     5.0173 H       
  59 H59           -5.6211    -1.1854     3.9293 H       
  60 H60            1.4827     2.2081    -0.0476 H       
  61 H61            0.4803     4.5698    -0.8554 H       
  62 H62           -1.9392     4.1200    -1.7595 H       
  63 H63            3.2196   -10.9053    -0.9470 H       
  64 H64            4.9613   -10.8091    -0.5927 H       
  65 H65            3.7730   -10.3814     0.6616 H       
  66 H66            4.4581    -7.8295    -2.5793 H       
  67 H67            5.3496    -9.3628    -2.4295 H       
  68 H68            3.6306    -9.3742    -2.8916 H       
@<TRIPOS>BOND
   1    1    2 1
   2    1   29 2
   3    1   32 1
   4    2    3 2
   5    2    4 am
   6    4    5 1
   7    4   36 1
   8    5    6 ar
   9    5   10 ar
  10    6    7 ar
  11    6   11 1
  12    7    8 ar
  13    7   37 1
  14    8    9 ar
  15    8   38 1
  16    9   10 ar
  17    9   23 1
  18   10   39 1
  19   11   12 1
  20   11   16 1
  21   12   13 1
  22   12   40 1
  23   12   41 1
  24   13   14 1
  25   13   42 1
  26   13   43 1
  27   14   15 1
  28   14   17 1
  29   15   16 1
  30   15   44 1
  31   15   45 1
  32   16   46 1
  33   16   47 1
  34   17   18 ar
  35   17   20 ar
  36   18   21 ar
  37   18   28 1
  38   19   21 ar
  39   19   22 ar
  40   19   48 1
  41   20   22 ar
  42   20   49 1
  43   21   50 1
  44   22   51 1
  45   23   24 am
  46   23   25 2
  47   24   26 1
  48   24   52 1
  49   26   27 1
  50   26   53 1
  51   26   54 1
  52   27   33 1
  53   27   55 1
  54   27   56 1
  55   28   57 1
  56   28   58 1
  57   28   59 1
  58   29   30 1
  59   29   60 1
  60   30   31 2
  61   30   61 1
  62   31   32 1
  63   31   62 1
  64   33   34 1
  65   33   35 1
  66   34   63 1
  67   34   64 1
  68   34   65 1
  69   35   66 1
  70   35   67 1
  71   35   68 1

#	End of record

