#	Name: ASD01911671
#	Creating user name:	WinNT
#	Creation time:	15. 06. 2019 19:58

#	Modifying user name:	WinNT
#	Modification time:	15. 06. 2019 19:58

#	Program:	/corina/corina34_cracker 3.40 0067  02.08.2006

@<TRIPOS>MOLECULE
ASD01911671
  46   49    0    0    0
SMALL
NO_CHARGES


@<TRIPOS>ATOM
   1 N1            -0.0162     1.3436     0.0094 N.am    
   2 C2             0.0021    -0.0041     0.0020 C.2     
   3 C3            -1.2566    -0.7538     0.0100 C.2     
   4 C4            -1.3813    -2.1170     0.0039 C.2     
   5 S5            -2.8763    -0.0590     0.0369 S.3     
   6 C6            -3.5692    -1.6782     0.0304 C.2     
   7 N7            -2.6048    -2.5646     0.0139 N.2     
   8 C8            -4.9692    -1.9790     0.0455 C.1     
   9 C9            -6.1169    -2.2256     0.0579 C.1     
  10 C10           -7.5169    -2.5264     0.0731 C.ar    
  11 C11           -7.9500    -3.8558     0.0660 C.ar    
  12 C12           -9.2998    -4.1374     0.0811 C.ar    
  13 C13          -10.2249    -3.1083     0.1029 C.ar    
  14 C14           -9.8039    -1.7899     0.1101 C.ar    
  15 C15           -8.4575    -1.4922     0.1010 C.ar    
  16 O16            1.0643    -0.5982    -0.0113 O.2     
  17 C17            0.9898     2.4163     0.0056 C.3     
  18 C18           -0.0493     3.3144    -0.6799 C.3     
  19 C19           -1.0510     2.3885     0.0183 C.3     
  20 N20           -0.0637     4.6998    -0.1916 N.3     
  21 C21           -0.9958     5.5232    -0.9723 C.3     
  22 C22            1.2875     5.2747    -0.1997 C.3     
  23 C23            1.2574     6.6608     0.4484 C.3     
  24 C24            0.2944     7.5618    -0.3296 C.3     
  25 C25           -1.0941     6.9166    -0.3473 C.3     
  26 H26           -0.5253    -2.7754    -0.0088 H       
  27 H27           -7.2293    -4.6600     0.0482 H       
  28 H28           -9.6360    -5.1638     0.0756 H       
  29 H29          -11.2807    -3.3351     0.1140 H       
  30 H30          -10.5318    -0.9921     0.1268 H       
  31 H31           -8.1305    -0.4630     0.1065 H       
  32 H32            1.2661     2.7559     1.0038 H       
  33 H33            1.8550     2.1977    -0.6203 H       
  34 H34           -0.0580     3.2382    -1.7672 H       
  35 H35           -1.9195     2.1474    -0.5947 H       
  36 H36           -1.3210     2.7187     1.0214 H       
  37 H37           -0.6338     5.6094    -1.9968 H       
  38 H38           -1.9804     5.0554    -0.9733 H       
  39 H39            1.9614     4.6265     0.3604 H       
  40 H40            1.6389     5.3621    -1.2278 H       
  41 H41            0.9193     6.5725     1.4808 H       
  42 H42            2.2575     7.0937     0.4281 H       
  43 H43            0.2369     8.5369     0.1541 H       
  44 H44            0.6534     7.6818    -1.3518 H       
  45 H45           -1.7740     7.5324    -0.9360 H       
  46 H46           -1.4692     6.8324     0.6727 H       
@<TRIPOS>BOND
   1    1    2 am
   2    1   17 1
   3    1   19 1
   4    2    3 1
   5    2   16 2
   6    3    4 2
   7    3    5 1
   8    4    7 1
   9    4   26 1
  10    5    6 1
  11    6    7 2
  12    6    8 1
  13    8    9 3
  14    9   10 1
  15   10   11 ar
  16   10   15 ar
  17   11   12 ar
  18   11   27 1
  19   12   13 ar
  20   12   28 1
  21   13   14 ar
  22   13   29 1
  23   14   15 ar
  24   14   30 1
  25   15   31 1
  26   17   18 1
  27   17   32 1
  28   17   33 1
  29   18   19 1
  30   18   20 1
  31   18   34 1
  32   19   35 1
  33   19   36 1
  34   20   21 1
  35   20   22 1
  36   21   25 1
  37   21   37 1
  38   21   38 1
  39   22   23 1
  40   22   39 1
  41   22   40 1
  42   23   24 1
  43   23   41 1
  44   23   42 1
  45   24   25 1
  46   24   43 1
  47   24   44 1
  48   25   45 1
  49   25   46 1

#	End of record

