#	Name: ASD02560215
#	Creating user name:	WinNT
#	Creation time:	15. 06. 2019 20:24

#	Modifying user name:	WinNT
#	Modification time:	15. 06. 2019 20:24

#	Program:	/corina/corina34_cracker 3.40 0067  02.08.2006

@<TRIPOS>MOLECULE
ASD02560215
  78   82    0    0    0
SMALL
NO_CHARGES


@<TRIPOS>ATOM
   1 Br1            0.8218     2.0151    -1.8905 Br      
   2 N2            -0.3359     1.5250     0.6496 N.2     
   3 N3            -1.0359     0.5087     0.6964 N.2     
   4 C4             0.9181     1.2736    -0.0723 C.3     
   5 N5             1.0357    -0.2056    -0.1227 N.3     
   6 C6            -0.3843    -0.6171     0.0148 C.3     
   7 S7            -0.5113    -2.1226     1.0189 S.3     
   8 C8             0.2137    -1.6186     2.6035 C.3     
   9 C9             0.1813    -2.7803     3.5629 C.2     
  10 O10           -0.2850    -3.8435     3.2122 O.2     
  11 N11            0.6705    -2.6377     4.8106 N.am    
  12 C12            1.5606    -0.6234    -1.3437 C.ar    
  13 C13            0.5802    -3.6916     5.7198 C.ar    
  14 C14            0.4560    -3.4262     7.0811 C.ar    
  15 C15            0.3666    -4.4651     7.9812 C.ar    
  16 C16            0.4007    -5.7862     7.5263 C.ar    
  17 C17            0.5254    -6.0484     6.1596 C.ar    
  18 C18            0.6086    -5.0053     5.2643 C.ar    
  19 Cl19           0.4143    -1.7846     7.6444 Cl      
  20 C20            0.3057    -6.9021     8.4877 C.2     
  21 C21            2.8440    -0.1989    -1.7498 C.ar    
  22 C22            0.8335    -1.4599    -2.1639 C.ar    
  23 C23            1.3487    -1.8829    -3.3852 C.ar    
  24 C24            2.5817    -1.4846    -3.8040 C.ar    
  25 C25            3.3573    -0.6364    -2.9957 C.ar    
  26 C26            3.6201     0.6481    -0.9435 C.ar    
  27 C27            4.6331    -0.2089    -3.4027 C.ar    
  28 C28            5.3575     0.6131    -2.5952 C.ar    
  29 C29            4.8539     1.0380    -1.3674 C.ar    
  30 C30            3.1164    -1.9577    -5.1312 C.3     
  31 N31            0.3387    -8.1755     8.0476 N.am    
  32 O32            0.1976    -6.6725     9.6768 O.2     
  33 C33            0.2444    -9.2831     9.0018 C.3     
  34 C34           -0.3100   -10.5210     8.2930 C.3     
  35 C35            1.6345    -9.5935     9.5617 C.3     
  36 C36            1.5268   -10.7287    10.5846 C.3     
  37 N37            0.8618   -11.8752     9.9505 N.am    
  38 C38           -0.4398   -11.6667     9.3016 C.3     
  39 C39            1.4352   -13.0949     9.9634 C.2     
  40 O40            0.8146   -14.1367     9.3783 O.3     
  41 O41            2.5122   -13.2543    10.5030 O.2     
  42 C42            1.4906   -15.4207     9.4307 C.3     
  43 C43            3.9908    -3.1948    -4.9169 C.3     
  44 C44            0.6396   -16.4744     8.7191 C.3     
  45 H45            1.7607     1.7032     0.4696 H       
  46 H46           -0.8302    -0.7760    -0.9670 H       
  47 H47            1.2459    -1.3050     2.4474 H       
  48 H48           -0.3593    -0.7891     3.0178 H       
  49 H49            1.0854    -1.8021     5.0763 H       
  50 H50            0.2706    -4.2590     9.0370 H       
  51 H51            0.5521    -7.0683     5.8052 H       
  52 H52            0.7047    -5.2078     4.2078 H       
  53 H53           -0.1470    -1.7909    -1.8546 H       
  54 H54            0.7611    -2.5381    -4.0112 H       
  55 H55            3.2405     0.9891     0.0084 H       
  56 H56            5.0366    -0.5313    -4.3512 H       
  57 H57            6.3374     0.9400    -2.9103 H       
  58 H58            5.4486     1.6906    -0.7454 H       
  59 H59            2.2847    -2.2102    -5.7889 H       
  60 H60            3.7120    -1.1662    -5.5860 H       
  61 H61            0.4250    -8.3587     7.0989 H       
  62 H62           -0.4215    -9.0033     9.8182 H       
  63 H63           -1.2900   -10.2921     7.8744 H       
  64 H64            0.3682   -10.8161     7.4924 H       
  65 H65            2.2944    -9.8974     8.7491 H       
  66 H66            2.0385    -8.7045    10.0460 H       
  67 H67            2.5243   -11.0206    10.9130 H       
  68 H68            0.9412   -10.3945    11.4411 H       
  69 H69           -1.1857   -11.4090    10.0534 H       
  70 H70           -0.7398   -12.5775     8.7834 H       
  71 H71            2.4591   -15.3418     8.9369 H       
  72 H72            1.6357   -15.7127    10.4708 H       
  73 H73            4.8226    -2.9424    -4.2592 H       
  74 H74            3.3952    -3.9864    -4.4621 H       
  75 H75            4.3776    -3.5371    -5.8768 H       
  76 H76            0.4945   -16.1824     7.6791 H       
  77 H77            1.1470   -17.4383     8.7585 H       
  78 H78           -0.3289   -16.5533     9.2129 H       
@<TRIPOS>BOND
   1    1    4 1
   2    2    3 2
   3    2    4 1
   4    3    6 1
   5    4    5 1
   6    4   45 1
   7    5    6 1
   8    5   12 1
   9    6    7 1
  10    6   46 1
  11    7    8 1
  12    8    9 1
  13    8   47 1
  14    8   48 1
  15    9   10 2
  16    9   11 am
  17   11   13 1
  18   11   49 1
  19   12   21 ar
  20   12   22 ar
  21   13   14 ar
  22   13   18 ar
  23   14   15 ar
  24   14   19 1
  25   15   16 ar
  26   15   50 1
  27   16   17 ar
  28   16   20 1
  29   17   18 ar
  30   17   51 1
  31   18   52 1
  32   20   31 am
  33   20   32 2
  34   21   25 ar
  35   21   26 ar
  36   22   23 ar
  37   22   53 1
  38   23   24 ar
  39   23   54 1
  40   24   25 ar
  41   24   30 1
  42   25   27 ar
  43   26   29 ar
  44   26   55 1
  45   27   28 ar
  46   27   56 1
  47   28   29 ar
  48   28   57 1
  49   29   58 1
  50   30   43 1
  51   30   59 1
  52   30   60 1
  53   31   33 1
  54   31   61 1
  55   33   34 1
  56   33   35 1
  57   33   62 1
  58   34   38 1
  59   34   63 1
  60   34   64 1
  61   35   36 1
  62   35   65 1
  63   35   66 1
  64   36   37 1
  65   36   67 1
  66   36   68 1
  67   37   38 1
  68   37   39 am
  69   38   69 1
  70   38   70 1
  71   39   40 1
  72   39   41 2
  73   40   42 1
  74   42   44 1
  75   42   71 1
  76   42   72 1
  77   43   73 1
  78   43   74 1
  79   43   75 1
  80   44   76 1
  81   44   77 1
  82   44   78 1

#	End of record

