#	Name: ASD04880199
#	Creating user name:	WinNT
#	Creation time:	15. 06. 2019 20:53

#	Modifying user name:	WinNT
#	Modification time:	15. 06. 2019 20:53

#	Program:	/corina/corina34_cracker 3.40 0067  02.08.2006

@<TRIPOS>MOLECULE
ASD04880199
  33   35    0    0    0
SMALL
NO_CHARGES


@<TRIPOS>ATOM
   1 C1            -0.0105     1.5405     0.0946 C.3     
   2 C2             0.0062     0.0004     0.0301 C.3     
   3 N3             1.4404    -0.3291     0.0242 N.am    
   4 N4             2.1746     0.8539     0.0780 N.2     
   5 C5             1.4529     1.9199     0.1187 C.2     
   6 C6             1.9739     3.2990     0.1795 C.2     
   7 C7             1.9590    -1.5722    -0.0247 C.2     
   8 O8             1.2252    -2.5400     0.0353 O.2     
   9 C9             3.4197    -1.7590    -0.1513 C.ar    
  10 C10            3.9733    -3.0370    -0.0587 C.ar    
  11 C11            5.3376    -3.2059    -0.1775 C.ar    
  12 C12            6.1577    -2.1124    -0.3880 C.ar    
  13 C13            5.6159    -0.8401    -0.4807 C.ar    
  14 C14            4.2507    -0.6588    -0.3696 C.ar    
  15 F15            6.4231     0.2235    -0.6860 F       
  16 C16            1.2061     4.4828     0.2249 C.2     
  17 N17            2.0265     5.4973     0.2728 N.2     
  18 N18            3.3410     5.0169     0.2605 N.pl3   
  19 C19            3.3009     3.6710     0.2085 C.2     
  20 C20            4.5539     5.8374     0.3026 C.3     
  21 H21           -0.4985     1.9549    -0.7876 H       
  22 H22           -0.5085     1.8797     1.0030 H       
  23 H23           -0.4817    -0.4256     0.9067 H       
  24 H24           -0.4717    -0.3504    -0.8846 H       
  25 H25            3.3348    -3.8923     0.1061 H       
  26 H26            5.7661    -4.1947    -0.1055 H       
  27 H27            7.2249    -2.2505    -0.4803 H       
  28 H28            3.8285     0.3326    -0.4418 H       
  29 H29            0.1276     4.5395     0.2202 H       
  30 H30            4.1519     3.0063     0.1869 H       
  31 H31            4.8487     5.9971     1.3398 H       
  32 H32            5.3568     5.3265    -0.2288 H       
  33 H33            4.3587     6.7991    -0.1718 H       
@<TRIPOS>BOND
   1    1    2 1
   2    1    5 1
   3    1   21 1
   4    1   22 1
   5    2    3 1
   6    2   23 1
   7    2   24 1
   8    3    4 1
   9    3    7 am
  10    4    5 2
  11    5    6 1
  12    6   16 1
  13    6   19 2
  14    7    8 2
  15    7    9 1
  16    9   10 ar
  17    9   14 ar
  18   10   11 ar
  19   10   25 1
  20   11   12 ar
  21   11   26 1
  22   12   13 ar
  23   12   27 1
  24   13   14 ar
  25   13   15 1
  26   14   28 1
  27   16   17 2
  28   16   29 1
  29   17   18 1
  30   18   19 1
  31   18   20 1
  32   19   30 1
  33   20   31 1
  34   20   32 1
  35   20   33 1

#	End of record

