#	Name: ASD03490134
#	Creating user name:	WinNT
#	Creation time:	15. 06. 2019 20:42

#	Modifying user name:	WinNT
#	Modification time:	15. 06. 2019 20:42

#	Program:	/corina/corina34_cracker 3.40 0067  02.08.2006

@<TRIPOS>MOLECULE
ASD03490134
  37   40    0    0    0
SMALL
NO_CHARGES


@<TRIPOS>ATOM
   1 C1            -0.0167     1.3791     0.0096 C.ar    
   2 C2             0.0021    -0.0041     0.0020 C.ar    
   3 C3             1.1686     2.0923     0.0021 C.ar    
   4 C4             1.2049    -0.6804    -0.0131 C.ar    
   5 C5             2.3774     1.4267    -0.0134 C.ar    
   6 C6             7.2770    -4.0369    -0.0854 C.ar    
   7 C7             7.2775    -2.6753    -0.0795 C.ar    
   8 C8             4.8615    -4.0951    -0.0635 C.ar    
   9 C9             8.2951     2.4115     0.5086 C.3     
  10 C10            8.0331     2.4067    -0.9988 C.3     
  11 C11            6.0750    -4.7538    -0.0782 C.ar    
  12 C12            2.4025     0.0330    -0.0207 C.ar    
  13 C13            7.0965     1.6471    -0.0572 C.3     
  14 N14            6.1031    -6.1467    -0.0850 N.pl3   
  15 N15            7.1700     0.1839    -0.0653 N.pl3   
  16 N16            4.8239     0.0225    -0.0433 N.ar    
  17 C17            3.6981    -0.6880    -0.0364 C.ar    
  18 N18            3.6878    -2.0081    -0.0425 N.ar    
  19 C19            4.8386    -2.6956    -0.0567 C.ar    
  20 C20            6.0626    -1.9795    -0.0650 C.ar    
  21 C21            6.0118    -0.5647    -0.0578 C.ar    
  22 H22           -0.9604     1.9042     0.0169 H       
  23 H23           -0.9264    -0.5557     0.0083 H       
  24 H24            1.1479     3.1721     0.0081 H       
  25 H25            1.2184    -1.7603    -0.0186 H       
  26 H26            3.3022     1.9845    -0.0200 H       
  27 H27            8.2159    -4.5703    -0.1011 H       
  28 H28            8.2119    -2.1338    -0.0855 H       
  29 H29            3.9380    -4.6549    -0.0584 H       
  30 H30            9.1382     1.8257     0.8748 H       
  31 H31            8.0924     3.3345     1.0517 H       
  32 H32            7.6582     3.3266    -1.4474 H       
  33 H33            8.7040     1.8178    -1.6244 H       
  34 H34            6.1054     2.0673     0.1137 H       
  35 H35            6.9527    -6.6146    -0.0947 H       
  36 H36            5.2731    -6.6486    -0.0801 H       
  37 H37            8.0333    -0.2583    -0.0760 H       
@<TRIPOS>BOND
   1    1    2 ar
   2    1    3 ar
   3    1   22 1
   4    2    4 ar
   5    2   23 1
   6    3    5 ar
   7    3   24 1
   8    4   12 ar
   9    4   25 1
  10    5   12 ar
  11    5   26 1
  12    6    7 ar
  13    6   11 ar
  14    6   27 1
  15    7   20 ar
  16    7   28 1
  17    8   11 ar
  18    8   19 ar
  19    8   29 1
  20    9   10 1
  21    9   13 1
  22    9   30 1
  23    9   31 1
  24   10   13 1
  25   10   32 1
  26   10   33 1
  27   11   14 1
  28   12   17 1
  29   13   15 1
  30   13   34 1
  31   14   35 1
  32   14   36 1
  33   15   21 1
  34   15   37 1
  35   16   17 ar
  36   16   21 ar
  37   17   18 ar
  38   18   19 ar
  39   19   20 ar
  40   20   21 ar

#	End of record

