#	Name: ASD03540138
#	Creating user name:	WinNT
#	Creation time:	15. 06. 2019 20:42

#	Modifying user name:	WinNT
#	Modification time:	15. 06. 2019 20:42

#	Program:	/corina/corina34_cracker 3.40 0067  02.08.2006

@<TRIPOS>MOLECULE
ASD03540138
  51   55    0    0    0
SMALL
NO_CHARGES


@<TRIPOS>ATOM
   1 C1            -0.0180     1.4730     0.0101 C.2     
   2 C2             0.0021    -0.0041     0.0020 C.ar    
   3 C3             1.2188    -0.6888    -0.0133 C.ar    
   4 C4             1.2303    -2.0682    -0.0203 C.ar    
   5 C5             0.0396    -2.7731    -0.0127 C.ar    
   6 C6            -1.1697    -2.1009     0.0020 C.ar    
   7 C7            -1.1956    -0.7217     0.0154 C.ar    
   8 O8             1.0256     2.0946     0.0035 O.2     
   9 O9            -1.1936     2.1307     0.0193 O.3     
  10 C10            0.0601    -4.2800    -0.0210 C.3     
  11 N11           -1.1415    -5.4839     3.2934 N.pl3   
  12 C12           -1.1135    -5.0224     2.0096 C.2     
  13 N13            0.0799    -4.7757     1.3575 N.am    
  14 C14            1.2629    -4.9850     1.9716 C.2     
  15 C15            1.2660    -5.4841     3.3594 C.ar    
  16 C16            2.4574    -5.7175     4.0389 C.ar    
  17 C17            2.4189    -6.1893     5.3483 C.ar    
  18 C18            1.1891    -6.4257     5.9714 C.ar    
  19 C19            0.0097    -6.1946     5.2983 C.ar    
  20 C20            0.0342    -5.7238     3.9926 C.ar    
  21 N21           -3.1529    -5.2458     2.5769 N.2     
  22 N22           -2.3643    -4.8960     1.6243 N.2     
  23 C23           -2.4610    -5.6200     3.6175 C.2     
  24 C24            3.6390    -6.4330     6.0572 C.1     
  25 C25            4.6393    -6.6328     6.6385 C.1     
  26 C26            5.8934    -6.8833     7.3673 C.3     
  27 C27            5.5777    -7.3851     8.7527 C.ar    
  28 C28            5.4435    -8.7416     8.9827 C.ar    
  29 C29            5.1538    -9.2019    10.2535 C.ar    
  30 C30            4.9988    -8.3057    11.2946 C.ar    
  31 C31            5.1339    -6.9493    11.0648 C.ar    
  32 C32            5.4278    -6.4893     9.7948 C.ar    
  33 O33            2.3088    -4.7662     1.3906 O.2     
  34 H34            2.1488    -0.1398    -0.0199 H       
  35 H35            2.1707    -2.5992    -0.0321 H       
  36 H36           -2.0953    -2.6572     0.0071 H       
  37 H37           -2.1401    -0.1983     0.0318 H       
  38 H38           -1.1561     3.0969     0.0244 H       
  39 H39           -0.8298    -4.6526    -0.5283 H       
  40 H40            0.9499    -4.6284    -0.5452 H       
  41 H41            3.4049    -5.5344     3.5541 H       
  42 H42            1.1642    -6.7923     6.9869 H       
  43 H43           -0.9354    -6.3799     5.7871 H       
  44 H44           -2.8573    -5.9652     4.5610 H       
  45 H45            6.4799    -7.6320     6.8346 H       
  46 H46            6.4640    -5.9573     7.4375 H       
  47 H47            5.5646    -9.4418     8.1693 H       
  48 H48            5.0483   -10.2616    10.4330 H       
  49 H49            4.7718    -8.6653    12.2873 H       
  50 H50            5.0124    -6.2491    11.8781 H       
  51 H51            5.5370    -5.4298     9.6161 H       
@<TRIPOS>BOND
   1    1    2 1
   2    1    8 2
   3    1    9 1
   4    2    3 ar
   5    2    7 ar
   6    3    4 ar
   7    3   34 1
   8    4    5 ar
   9    4   35 1
  10    5    6 ar
  11    5   10 1
  12    6    7 ar
  13    6   36 1
  14    7   37 1
  15    9   38 1
  16   10   13 1
  17   10   39 1
  18   10   40 1
  19   11   12 1
  20   11   20 1
  21   11   23 1
  22   12   13 1
  23   12   22 2
  24   13   14 am
  25   14   15 1
  26   14   33 2
  27   15   16 ar
  28   15   20 ar
  29   16   17 ar
  30   16   41 1
  31   17   18 ar
  32   17   24 1
  33   18   19 ar
  34   18   42 1
  35   19   20 ar
  36   19   43 1
  37   21   22 1
  38   21   23 2
  39   23   44 1
  40   24   25 3
  41   25   26 1
  42   26   27 1
  43   26   45 1
  44   26   46 1
  45   27   28 ar
  46   27   32 ar
  47   28   29 ar
  48   28   47 1
  49   29   30 ar
  50   29   48 1
  51   30   31 ar
  52   30   49 1
  53   31   32 ar
  54   31   50 1
  55   32   51 1

#	End of record

