#	Name: ASD01917382
#	Creating user name:	WinNT
#	Creation time:	15. 06. 2019 20:09

#	Modifying user name:	WinNT
#	Modification time:	15. 06. 2019 20:09

#	Program:	/corina/corina34_cracker 3.40 0067  02.08.2006

@<TRIPOS>MOLECULE
ASD01917382
  48   52    0    0    0
SMALL
NO_CHARGES


@<TRIPOS>ATOM
   1 C1            -0.0171     1.4092     0.0098 C.ar    
   2 C2             0.0021    -0.0041     0.0020 C.ar    
   3 C3            -1.1912    -0.7236     0.0401 C.ar    
   4 C4            -2.3836    -0.0588     0.0717 C.ar    
   5 C5            -2.4190     1.3397     0.0668 C.ar    
   6 C6            -1.2425     2.0753     0.0362 C.ar    
   7 N7             1.1593     2.0745     0.0021 N.2     
   8 C8             2.3196     1.4674    -0.0393 C.2     
   9 N9             2.4205     0.1194    -0.1563 N.am    
  10 C10            1.3109    -0.6633    -0.0613 C.2     
  11 O11            1.4023    -1.8768    -0.0299 O.2     
  12 C12           -3.7261     2.0429     0.0945 C.2     
  13 C13            3.5351     2.3455     0.1019 C.3     
  14 C14            4.7918     1.6931    -0.4305 C.3     
  15 C15            4.8969     0.2370    -0.0255 C.3     
  16 C16            3.6803    -0.5619    -0.4345 C.3     
  17 C17            6.1355    -0.3730    -0.6850 C.3     
  18 C18            5.0562     0.1551     1.4939 C.3     
  19 N19           -3.9255     3.3348     0.0019 N.2     
  20 O20           -5.1009     3.6116     0.0554 O.3     
  21 C21           -5.8655     2.5137     0.1945 C.2     
  22 C22           -5.0099     1.4493     0.2203 C.2     
  23 C23           -7.3404     2.4675     0.2918 C.ar    
  24 N24           -7.9559     1.2977     0.4191 N.ar    
  25 C25           -9.2671     1.2140     0.5092 C.ar    
  26 C26          -10.0558     2.3498     0.4738 C.ar    
  27 C27           -9.4538     3.5933     0.3419 C.ar    
  28 C28           -8.0739     3.6536     0.2550 C.ar    
  29 H29           -1.1727    -1.8034     0.0443 H       
  30 H30           -3.3074    -0.6175     0.1005 H       
  31 H31           -1.2754     3.1548     0.0332 H       
  32 H32            3.3634     3.2744    -0.4419 H       
  33 H33            3.6798     2.5793     1.1567 H       
  34 H34            4.7905     1.7583    -1.5185 H       
  35 H35            5.6591     2.2304    -0.0467 H       
  36 H36            3.6897    -1.5116     0.1003 H       
  37 H37            3.7390    -0.7653    -1.5038 H       
  38 H38            7.0244     0.1657    -0.3568 H       
  39 H39            6.2199    -1.4215    -0.3995 H       
  40 H40            6.0444    -0.2977    -1.7686 H       
  41 H41            4.1901     0.6096     1.9750 H       
  42 H42            5.1327    -0.8895     1.7955 H       
  43 H43            5.9591     0.6869     1.7938 H       
  44 H44           -5.2529     0.4012     0.3138 H       
  45 H45           -9.7331     0.2451     0.6118 H       
  46 H46          -11.1303     2.2697     0.5478 H       
  47 H47          -10.0487     4.4942     0.3115 H       
  48 H48           -7.5726     4.6046     0.1517 H       
@<TRIPOS>BOND
   1    1    2 ar
   2    1    7 1
   3    1    6 ar
   4    2    3 ar
   5    2   10 1
   6    3    4 ar
   7    3   29 1
   8    4    5 ar
   9    4   30 1
  10    5    6 ar
  11    5   12 1
  12    6   31 1
  13    7    8 2
  14    8    9 1
  15    8   13 1
  16    9   10 am
  17    9   16 1
  18   10   11 2
  19   12   19 2
  20   12   22 1
  21   13   14 1
  22   13   32 1
  23   13   33 1
  24   14   15 1
  25   14   34 1
  26   14   35 1
  27   15   16 1
  28   15   17 1
  29   15   18 1
  30   16   36 1
  31   16   37 1
  32   17   38 1
  33   17   39 1
  34   17   40 1
  35   18   41 1
  36   18   42 1
  37   18   43 1
  38   19   20 1
  39   20   21 1
  40   21   22 2
  41   21   23 1
  42   22   44 1
  43   23   24 ar
  44   23   28 ar
  45   24   25 ar
  46   25   26 ar
  47   25   45 1
  48   26   27 ar
  49   26   46 1
  50   27   28 ar
  51   27   47 1
  52   28   48 1

#	End of record

