#	Name: ASD02500847
#	Creating user name:	WinNT
#	Creation time:	15. 06. 2019 20:23

#	Modifying user name:	WinNT
#	Modification time:	15. 06. 2019 20:23

#	Program:	/corina/corina34_cracker 3.40 0067  02.08.2006

@<TRIPOS>MOLECULE
ASD02500847
  78   81    0    0    0
SMALL
NO_CHARGES


@<TRIPOS>ATOM
   1 C1             0.6111     1.6197     0.5381 C.ar    
   2 C2             0.6696     0.2790     0.1921 C.ar    
   3 C3            -0.4840    -0.4037    -0.1454 C.ar    
   4 C4            -1.7051     0.2550    -0.1374 C.ar    
   5 C5            -1.7642     1.6056     0.2116 C.ar    
   6 C6            -0.6020     2.2821     0.5537 C.ar    
   7 Cl7            2.0655     2.4683     0.9604 Cl      
   8 Cl8            2.1971    -0.5458     0.1819 Cl      
   9 N9            -3.0038    -0.1588    -0.4236 N.pl3   
  10 C10           -3.8416     0.9134    -0.2541 C.2     
  11 N11           -3.0981     1.9983     0.1339 N.pl3   
  12 C12           -3.4052    -1.5062    -0.8352 C.3     
  13 C13           -3.7334    -2.3415     0.4040 C.3     
  14 C14           -3.6172     3.3384     0.4183 C.3     
  15 C15           -4.1255     3.3929     1.8604 C.3     
  16 C16           -4.6292     4.8039     2.1705 C.3     
  17 C17           -5.0249     4.8914     3.6459 C.3     
  18 C18           -5.5286     6.3024     3.9561 C.3     
  19 C19           -5.2068     0.9027    -0.4434 C.2     
  20 C20           -5.9738     2.0151    -0.0744 C.2     
  21 C21           -7.3192     2.0184    -0.2935 C.2     
  22 C22           -8.0718     3.1891    -0.0502 C.cat   
  23 N23           -7.7002     4.4618    -0.4161 N.pl3   
  24 C24           -8.7070     5.3170     0.0029 C.ar    
  25 C25           -9.6775     4.5115     0.6236 C.ar    
  26 N26           -9.2421     3.2292     0.5581 N.pl3   
  27 C27           -8.8949     6.6881    -0.0804 C.ar    
  28 C28          -10.0362     7.2596     0.4470 C.ar    
  29 C29          -10.9989     6.4691     1.0616 C.ar    
  30 C30          -10.8284     5.1051     1.1532 C.ar    
  31 Cl31         -12.4269     7.2052     1.7194 Cl      
  32 Cl32         -10.2688     8.9767     0.3418 Cl      
  33 C33           -6.4708     4.8419    -1.1163 C.3     
  34 C34           -6.7509     4.9495    -2.6166 C.3     
  35 C35           -9.9580     2.0664     1.0888 C.3     
  36 C36          -10.8801     1.4983     0.0080 C.3     
  37 C37          -11.6277     0.2839     0.5622 C.3     
  38 C38          -12.5498    -0.2841    -0.5185 C.3     
  39 C39          -13.2975    -1.4985     0.0357 C.3     
  40 H40           -0.4348    -1.4483    -0.4153 H       
  41 H41           -0.6442     3.3268     0.8242 H       
  42 H42           -4.2856    -1.4436    -1.4748 H       
  43 H43           -2.5897    -1.9763    -1.3847 H       
  44 H44           -4.0321    -3.3440     0.0977 H       
  45 H45           -2.8530    -2.4041     1.0435 H       
  46 H46           -4.5490    -1.8713     0.9535 H       
  47 H47           -2.8219     4.0718     0.2854 H       
  48 H48           -4.4366     3.5631    -0.2645 H       
  49 H49           -4.9408     2.6804     1.9854 H       
  50 H50           -3.3135     3.1391     2.5417 H       
  51 H51           -3.8392     5.5256     1.9629 H       
  52 H52           -5.4962     5.0252     1.5481 H       
  53 H53           -5.8150     4.1697     3.8536 H       
  54 H54           -4.1579     4.6701     4.2683 H       
  55 H55           -5.8105     6.3647     5.0071 H       
  56 H56           -4.7386     7.0241     3.7484 H       
  57 H57           -6.3956     6.5237     3.3336 H       
  58 H58           -5.6851     0.0366    -0.8763 H       
  59 H59           -5.4993     2.8703     0.3837 H       
  60 H60           -7.8099     1.1260    -0.6531 H       
  61 H61           -8.1499     7.3082    -0.5567 H       
  62 H62          -11.5808     4.4960     1.6319 H       
  63 H63           -6.1221     5.8044    -0.7419 H       
  64 H64           -5.7052     4.0857    -0.9430 H       
  65 H65           -7.5165     5.7058    -2.7900 H       
  66 H66           -5.8362     5.2324    -3.1376 H       
  67 H67           -7.0995     3.9871    -2.9911 H       
  68 H68           -9.2397     1.3043     1.3909 H       
  69 H69          -10.5521     2.3681     1.9514 H       
  70 H70          -11.5984     2.2605    -0.2941 H       
  71 H71          -10.2860     1.1966    -0.8546 H       
  72 H72          -10.9094    -0.4782     0.8644 H       
  73 H73          -12.2218     0.5856     1.4249 H       
  74 H74          -13.2681     0.4780    -0.8207 H       
  75 H75          -11.9557    -0.5858    -1.3812 H       
  76 H76          -13.9543    -1.9032    -0.7343 H       
  77 H77          -12.5792    -2.2606     0.3378 H       
  78 H78          -13.8916    -1.1968     0.8983 H       
@<TRIPOS>BOND
   1    1    2 ar
   2    1    7 1
   3    1    6 ar
   4    2    3 ar
   5    2    8 1
   6    3    4 ar
   7    3   40 1
   8    4    5 ar
   9    4    9 1
  10    5    6 ar
  11    5   11 1
  12    6   41 1
  13    9   10 1
  14    9   12 1
  15   10   11 1
  16   10   19 2
  17   11   14 1
  18   12   13 1
  19   12   42 1
  20   12   43 1
  21   13   44 1
  22   13   45 1
  23   13   46 1
  24   14   15 1
  25   14   47 1
  26   14   48 1
  27   15   16 1
  28   15   49 1
  29   15   50 1
  30   16   17 1
  31   16   51 1
  32   16   52 1
  33   17   18 1
  34   17   53 1
  35   17   54 1
  36   18   55 1
  37   18   56 1
  38   18   57 1
  39   19   20 1
  40   19   58 1
  41   20   21 2
  42   20   59 1
  43   21   22 1
  44   21   60 1
  45   22   23 ar
  46   22   26 ar
  47   23   24 1
  48   23   33 1
  49   24   25 ar
  50   24   27 ar
  51   25   26 1
  52   25   30 ar
  53   26   35 1
  54   27   28 ar
  55   27   61 1
  56   28   29 ar
  57   28   32 1
  58   29   30 ar
  59   29   31 1
  60   30   62 1
  61   33   34 1
  62   33   63 1
  63   33   64 1
  64   34   65 1
  65   34   66 1
  66   34   67 1
  67   35   36 1
  68   35   68 1
  69   35   69 1
  70   36   37 1
  71   36   70 1
  72   36   71 1
  73   37   38 1
  74   37   72 1
  75   37   73 1
  76   38   39 1
  77   38   74 1
  78   38   75 1
  79   39   76 1
  80   39   77 1
  81   39   78 1

#	End of record

