#	Name: ASD01202046
#	Creating user name:	WinNT
#	Creation time:	15. 06. 2019 19:09

#	Modifying user name:	WinNT
#	Modification time:	15. 06. 2019 19:09

#	Program:	/corina/corina34_cracker 3.40 0067  02.08.2006

@<TRIPOS>MOLECULE
ASD01202046
  46   49    0    0    0
SMALL
NO_CHARGES


@<TRIPOS>ATOM
   1 C1            -0.0172     1.4169     0.0098 C.2     
   2 C2             0.0021    -0.0041     0.0020 C.2     
   3 C3             1.2868     1.8236    -0.0004 C.2     
   4 C4            -1.2104     2.2823     0.0205 C.2     
   5 C5             1.3081    -0.3737    -0.0124 C.2     
   6 O6             2.0687     0.7387    -0.0137 O.3     
   7 O7            -1.0843     3.4919     0.0260 O.2     
   8 N8            -2.4412     1.7331     0.0241 N.am    
   9 C9             1.8104    -1.7604    -0.0247 C.ar    
  10 C10           -3.5657     2.5487     0.0342 C.2     
  11 S11           -3.5353     4.2557     0.0352 S.3     
  12 N12           -4.7840     2.1264     0.0384 N.2     
  13 C13           -5.3005     4.2988     0.0490 C.2     
  14 C14           -5.7578     3.0427     0.0479 C.2     
  15 H15           -2.5418     0.7684     0.0197 H       
  16 C16            2.7788    -2.1559    -0.9687 C.ar    
  17 C17            3.2443    -3.4716    -0.9668 C.ar    
  18 C18            2.7565    -4.3739    -0.0455 C.ar    
  19 C19            1.8037    -3.9848     0.8832 C.ar    
  20 C20            1.3342    -2.6884     0.9022 C.ar    
  21 C21            1.7638     3.2531     0.0022 C.3     
  22 C22            3.2966    -1.1864    -1.9521 C.2     
  23 C23           -7.2841     3.0507     0.0621 C.3     
  24 C24           -7.6817     4.4752    -0.3744 C.3     
  25 C25           -6.4474     5.2925     0.0575 C.3     
  26 N26            4.2229    -1.5698    -2.8529 N.am    
  27 O27            2.8878    -0.0412    -1.9502 O.2     
  28 C28            1.9388     3.7297     1.4456 C.3     
  29 H29           -0.8549    -0.6613     0.0070 H       
  30 H30            3.9862    -3.7830    -1.6872 H       
  31 H31            3.1190    -5.3912    -0.0476 H       
  32 H32            1.4293    -4.7011     1.5994 H       
  33 H33            0.5922    -2.3933     1.6293 H       
  34 H34            2.7181     3.3187    -0.5203 H       
  35 H35            1.0297     3.8820    -0.5015 H       
  36 H36           -7.6731     2.3162    -0.6431 H       
  37 H37           -7.6544     2.8454     1.0665 H       
  38 H38           -7.8234     4.5272    -1.4539 H       
  39 H39           -8.5761     4.8091     0.1516 H       
  40 H40           -6.5903     5.6940     1.0607 H       
  41 H41           -6.2592     6.0987    -0.6515 H       
  42 H42            4.5490    -2.4833    -2.8545 H       
  43 H43            4.5634    -0.9321    -3.4997 H       
  44 H44            0.9845     3.6641     1.9681 H       
  45 H45            2.6729     3.1008     1.9493 H       
  46 H46            2.2838     4.7636     1.4475 H       
@<TRIPOS>BOND
   1    1    2 1
   2    1    3 2
   3    1    4 1
   4    2    5 2
   5    2   29 1
   6    3   21 1
   7    3    6 1
   8    4    7 2
   9    4    8 am
  10    5    9 1
  11    5    6 1
  12    8   15 1
  13    8   10 1
  14    9   16 ar
  15    9   20 ar
  16   10   12 2
  17   10   11 1
  18   11   13 1
  19   12   14 1
  20   13   14 2
  21   13   25 1
  22   14   23 1
  23   16   17 ar
  24   16   22 1
  25   17   18 ar
  26   17   30 1
  27   18   19 ar
  28   18   31 1
  29   19   20 ar
  30   19   32 1
  31   20   33 1
  32   21   28 1
  33   21   34 1
  34   21   35 1
  35   22   26 am
  36   22   27 2
  37   23   24 1
  38   23   36 1
  39   23   37 1
  40   24   25 1
  41   24   38 1
  42   24   39 1
  43   25   40 1
  44   25   41 1
  45   26   42 1
  46   26   43 1
  47   28   44 1
  48   28   45 1
  49   28   46 1

#	End of record

