#	Name: ASD03570026
#	Creating user name:	WinNT
#	Creation time:	15. 06. 2019 20:43

#	Modifying user name:	WinNT
#	Modification time:	15. 06. 2019 20:43

#	Program:	/corina/corina34_cracker 3.40 0067  02.08.2006

@<TRIPOS>MOLECULE
ASD03570026
  35   37    0    0    0
SMALL
NO_CHARGES


@<TRIPOS>ATOM
   1 C1            -0.0169     1.3985     0.0097 C.ar    
   2 C2             0.0021    -0.0041     0.0020 C.ar    
   3 C3             1.2145    -0.6904    -0.0133 C.ar    
   4 C4             2.4084     0.0222    -0.0209 C.ar    
   5 C5             2.3777     1.4316    -0.0131 C.ar    
   6 C6             1.1460     2.1048     0.0024 C.ar    
   7 N7             3.7309    -0.3608    -0.0356 N.pl3   
   8 C8             4.5209     0.7735    -0.0371 C.2     
   9 C9             3.7206     1.8739    -0.0236 C.2     
  10 C10            4.1831     3.3081    -0.0203 C.3     
  11 C11            4.3264     3.8011    -1.4616 C.3     
  12 C12           -1.2681    -0.7563     0.0106 C.2     
  13 F13            1.2300    -2.0413    -0.0202 F       
  14 C14           -2.3076    -0.5585     0.8660 C.2     
  15 C15           -3.3041    -1.4908     0.5159 C.2     
  16 C16           -2.8297    -2.2042    -0.5243 C.2     
  17 O17           -1.6018    -1.7540    -0.8306 O.3     
  18 C18            5.9887     0.7886    -0.0507 C.2     
  19 O19            6.5858     1.8478    -0.0503 O.2     
  20 O20            6.6749    -0.3724    -0.0636 O.3     
  21 C21            4.7889     5.2353    -1.4584 C.2     
  22 O22            4.9839     5.8048    -0.4108 O.2     
  23 O23            4.9842     5.8802    -2.6193 O.3     
  24 H24           -0.9617     1.9217     0.0170 H       
  25 H25            1.1215     3.1845     0.0085 H       
  26 H26            4.0546    -1.2751    -0.0433 H       
  27 H27            3.4524     3.9243     0.5035 H       
  28 H28            5.1463     3.3781     0.4851 H       
  29 H29            5.0572     3.1848    -1.9854 H       
  30 H30            3.3632     3.7310    -1.9670 H       
  31 H31           -2.3588     0.1718     1.6600 H       
  32 H32           -4.2664    -1.6111     0.9913 H       
  33 H33           -3.3517    -3.0028    -1.0304 H       
  34 H34            7.6399    -0.3118    -0.0722 H       
  35 H35            5.2810     6.7990    -2.5666 H       
@<TRIPOS>BOND
   1    1    2 ar
   2    1    6 ar
   3    1   24 1
   4    2    3 ar
   5    2   12 1
   6    3    4 ar
   7    3   13 1
   8    4    5 ar
   9    4    7 1
  10    5    6 ar
  11    5    9 1
  12    6   25 1
  13    7    8 1
  14    7   26 1
  15    8    9 2
  16    8   18 1
  17    9   10 1
  18   10   11 1
  19   10   27 1
  20   10   28 1
  21   11   21 1
  22   11   29 1
  23   11   30 1
  24   12   14 2
  25   12   17 1
  26   14   15 1
  27   14   31 1
  28   15   16 2
  29   15   32 1
  30   16   17 1
  31   16   33 1
  32   18   19 2
  33   18   20 1
  34   20   34 1
  35   21   22 2
  36   21   23 1
  37   23   35 1

#	End of record

