#	Name: ASD00311199
#	Creating user name:	WinNT
#	Creation time:	15. 06. 2019 18:34

#	Modifying user name:	WinNT
#	Modification time:	15. 06. 2019 18:34

#	Program:	/corina/corina34_cracker 3.40 0067  02.08.2006

@<TRIPOS>MOLECULE
ASD00311199
  41   44    0    0    0
SMALL
NO_CHARGES


@<TRIPOS>ATOM
   1 C1            -0.0167     1.3776     0.0096 C.2     
   2 C2             0.0021    -0.0041     0.0020 C.2     
   3 C3             1.2588    -0.6766    -0.0139 C.2     
   4 C4             2.4313     0.0671    -0.0214 C.2     
   5 C5             2.3576     1.4746    -0.0131 C.2     
   6 N6             1.1652     2.0902     0.0022 N.am    
   7 C7            -1.3433    -0.5753     0.0126 C.2     
   8 C8            -2.3230     0.3264     0.0274 C.2     
   9 S9            -1.6792     1.9564     0.0358 S.3     
  10 O10            3.3827     2.1365    -0.0192 O.2     
  11 C11            3.7478    -0.6127    -0.0375 C.ar    
  12 C12            4.5923    -0.4747    -1.1387 C.ar    
  13 C13            5.8173    -1.1085    -1.1500 C.ar    
  14 C14            6.2097    -1.8833    -0.0673 C.ar    
  15 C15            5.3716    -2.0233     1.0302 C.ar    
  16 C16            4.1478    -1.3874     1.0511 C.ar    
  17 O17            7.4175    -2.5069    -0.0820 O.3     
  18 C18            7.7581    -3.2885     1.0648 C.3     
  19 O19            1.3087    -2.0294    -0.0212 O.3     
  20 C20           -1.5959    -2.0357     0.0069 C.ar    
  21 C21           -1.7281    -2.7208    -1.2058 C.ar    
  22 C22           -1.9640    -4.0847    -1.2030 C.ar    
  23 C23           -2.0691    -4.7680    -0.0028 C.ar    
  24 C24           -1.9386    -4.0918     1.1992 C.ar    
  25 C25           -1.6970    -2.7326     1.2089 C.ar    
  26 O26           -1.6256    -2.0491    -2.3828 O.3     
  27 F27           -2.3002    -6.0991    -0.0044 F       
  28 Cl28          -4.0150    -0.0615     0.0425 Cl      
  29 H29            1.1332     3.0596     0.0077 H       
  30 H30            4.2874     0.1275    -1.9818 H       
  31 H31            6.4718    -1.0020    -2.0025 H       
  32 H32            5.6799    -2.6273     1.8708 H       
  33 H33            3.4982    -1.4928     1.9074 H       
  34 H34            7.0211    -4.0806     1.1966 H       
  35 H35            8.7447    -3.7299     0.9237 H       
  36 H36            7.7684    -2.6510     1.9489 H       
  37 H37            2.2060    -2.3898    -0.0320 H       
  38 H38           -2.0665    -4.6165    -2.1374 H       
  39 H39           -2.0216    -4.6305     2.1316 H       
  40 H40           -1.5910    -2.2092     2.1476 H       
  41 H41           -0.7255    -2.0050    -2.7334 H       
@<TRIPOS>BOND
   1    1    2 2
   2    1    6 1
   3    1    9 1
   4    2    3 1
   5    2    7 1
   6    3    4 2
   7    3   19 1
   8    4    5 1
   9    4   11 1
  10    5    6 am
  11    5   10 2
  12    6   29 1
  13    7    8 2
  14    7   20 1
  15    8    9 1
  16    8   28 1
  17   11   12 ar
  18   11   16 ar
  19   12   13 ar
  20   12   30 1
  21   13   14 ar
  22   13   31 1
  23   14   15 ar
  24   14   17 1
  25   15   16 ar
  26   15   32 1
  27   16   33 1
  28   17   18 1
  29   18   34 1
  30   18   35 1
  31   18   36 1
  32   19   37 1
  33   20   21 ar
  34   20   25 ar
  35   21   22 ar
  36   21   26 1
  37   22   23 ar
  38   22   38 1
  39   23   24 ar
  40   23   27 1
  41   24   25 ar
  42   24   39 1
  43   25   40 1
  44   26   41 1

#	End of record

