#	Name: ASD05430348
#	Creating user name:	WinNT
#	Creation time:	15. 06. 2019 21:00

#	Modifying user name:	WinNT
#	Modification time:	15. 06. 2019 21:00

#	Program:	/corina/corina34_cracker 3.40 0067  02.08.2006

@<TRIPOS>MOLECULE
ASD05430348
  60   64    0    0    0
SMALL
NO_CHARGES


@<TRIPOS>ATOM
   1 C1            -0.1989     1.1677     1.0313 C.ar    
   2 C2            -0.0144    -0.0165     0.3184 C.ar    
   3 C3            -1.0357    -0.5175    -0.4787 C.ar    
   4 C4            -2.2359     0.1531    -0.5687 C.ar    
   5 C5            -2.4283     1.3412     0.1439 C.ar    
   6 C6            -1.4022     1.8428     0.9502 C.ar    
   7 C7            -4.8619     1.3704    -0.0467 C.2     
   8 C8            -3.7098     2.0594     0.0485 C.2     
   9 N9            -7.2308     1.6222     0.4535 N.pl3   
  10 C10           -6.1400     2.0599    -0.2966 C.2     
  11 C11           -8.3972     3.5357     1.3838 C.ar    
  12 C12           -9.4681     4.3994     1.5190 C.ar    
  13 C13           -7.2559     3.7242     2.1408 C.ar    
  14 C14           -7.1845     4.7763     3.0340 C.ar    
  15 C15           -8.2564     5.6421     3.1702 C.ar    
  16 C16           -9.3988     5.4525     2.4112 C.ar    
  17 F17           -8.1879     6.6707     4.0434 F       
  18 O18            0.8029     1.6552     1.8105 O.3     
  19 C19            0.5447     2.8728     2.5126 C.3     
  20 C20            1.3713    -2.0373     0.6700 C.2     
  21 N21            1.2045    -0.7024     0.4059 N.pl3   
  22 C22            2.6970    -2.2740     0.6613 C.2     
  23 N23            3.3269    -1.1191     0.3997 N.2     
  24 C24            2.4439    -0.1704     0.2448 C.2     
  25 C25            3.3585    -3.6061     0.9040 C.3     
  26 C26           -4.8827    -0.1335     0.0933 C.3     
  27 C27           -6.2881    -0.6287     0.4202 C.3     
  28 C28           -7.0726     0.3934     1.2425 C.3     
  29 C29           -8.4764     2.3840     0.4151 C.3     
  30 C30           -8.6716     2.9189    -1.0081 C.3     
  31 O31           -7.5076     3.6216    -1.4310 O.3     
  32 N32           -6.2681     3.0034    -1.1688 N.2     
  33 C33           -9.6485     1.4745     0.7892 C.3     
  34 H34           -0.8885    -1.4348    -1.0294 H       
  35 H35           -3.0280    -0.2384    -1.1897 H       
  36 H36           -1.5467     2.7596     1.5024 H       
  37 H37           -3.7253     3.1393     0.0550 H       
  38 H38          -10.3591     4.2513     0.9268 H       
  39 H39           -6.4199     3.0488     2.0344 H       
  40 H40           -6.2931     4.9230     3.6258 H       
  41 H41          -10.2354     6.1274     2.5163 H       
  42 H42            1.4235     3.1498     3.0948 H       
  43 H43            0.3186     3.6637     1.7974 H       
  44 H44           -0.3050     2.7336     3.1810 H       
  45 H45            0.5897    -2.7595     0.8542 H       
  46 H46            2.6621     0.8643     0.0249 H       
  47 H47            3.4748    -4.1321    -0.0436 H       
  48 H48            4.3383    -3.4485     1.3547 H       
  49 H49            2.7407    -4.2014     1.5765 H       
  50 H50           -4.5519    -0.5853    -0.8419 H       
  51 H51           -4.2035    -0.4286     0.8931 H       
  52 H52           -6.8223    -0.8213    -0.5102 H       
  53 H53           -6.2149    -1.5580     0.9851 H       
  54 H54           -6.5305     0.6147     2.1618 H       
  55 H55           -8.0548    -0.0116     1.4860 H       
  56 H56           -8.8563     2.0851    -1.6854 H       
  57 H57           -9.5277     3.5934    -1.0265 H       
  58 H58           -9.4965     1.0808     1.7941 H       
  59 H59          -10.5760     2.0464     0.7594 H       
  60 H60           -9.7081     0.6485     0.0805 H       
@<TRIPOS>BOND
   1    1    2 ar
   2    1   18 1
   3    1    6 ar
   4    2    3 ar
   5    2   21 1
   6    3    4 ar
   7    3   34 1
   8    4    5 ar
   9    4   35 1
  10    5    6 ar
  11    5    8 1
  12    6   36 1
  13    7    8 2
  14    7   26 1
  15    7   10 1
  16    8   37 1
  17    9   10 1
  18    9   29 1
  19    9   28 1
  20   10   32 2
  21   11   12 ar
  22   11   13 ar
  23   11   29 1
  24   12   16 ar
  25   12   38 1
  26   13   14 ar
  27   13   39 1
  28   14   15 ar
  29   14   40 1
  30   15   16 ar
  31   15   17 1
  32   16   41 1
  33   18   19 1
  34   19   42 1
  35   19   43 1
  36   19   44 1
  37   20   21 1
  38   20   22 2
  39   20   45 1
  40   21   24 1
  41   22   23 1
  42   22   25 1
  43   23   24 2
  44   24   46 1
  45   25   47 1
  46   25   48 1
  47   25   49 1
  48   26   27 1
  49   26   50 1
  50   26   51 1
  51   27   28 1
  52   27   52 1
  53   27   53 1
  54   28   54 1
  55   28   55 1
  56   29   30 1
  57   29   33 1
  58   30   31 1
  59   30   56 1
  60   30   57 1
  61   31   32 1
  62   33   58 1
  63   33   59 1
  64   33   60 1

#	End of record

