#	Name: ASD01913504
#	Creating user name:	WinNT
#	Creation time:	15. 06. 2019 20:01

#	Modifying user name:	WinNT
#	Modification time:	15. 06. 2019 20:01

#	Program:	/corina/corina34_cracker 3.40 0067  02.08.2006

@<TRIPOS>MOLECULE
ASD01913504
  38   40    0    0    0
SMALL
NO_CHARGES


@<TRIPOS>ATOM
   1 C1            -0.6797     1.3766    -0.9544 C.ar    
   2 C2            -0.7335    -0.0148    -0.9863 C.ar    
   3 C3            -0.1009    -0.6751    -2.0369 C.ar    
   4 N4             0.5236     0.0380    -2.9593 N.ar    
   5 C5             0.5518     1.3540    -2.8933 C.ar    
   6 N6            -0.0343     2.0157    -1.9158 N.ar    
   7 C7            -1.4580    -2.1202    -0.0468 C.ar    
   8 C8            -0.3095    -2.8886     0.1487 C.ar    
   9 C9            -0.4017    -4.2642     0.0907 C.ar    
  10 N10           -1.5581    -4.8572    -0.1468 N.ar    
  11 C11           -2.6718    -4.1648    -0.3380 C.ar    
  12 C12           -2.6600    -2.7786    -0.2945 C.ar    
  13 N13           -3.8673    -4.8365    -0.5853 N.am    
  14 C14           -3.8683    -6.1753    -0.7411 C.2     
  15 N15           -1.4046    -0.7298     0.0100 N.pl3   
  16 C16           -5.1157    -6.8750    -1.1140 C.ar    
  17 O17           -2.8433    -6.8072    -0.5749 O.2     
  18 C18           -5.1200    -8.2613    -1.2761 C.ar    
  19 C19           -6.2878    -8.9089    -1.6238 C.ar    
  20 C20           -7.4528    -8.1875    -1.8123 C.ar    
  21 C21           -7.4559    -6.8120    -1.6532 C.ar    
  22 C22           -6.2958    -6.1528    -1.2999 C.ar    
  23 Br23          -9.0543    -5.8355    -1.9134 Br      
  24 C24           -2.0516    -0.0165     1.1140 C.3     
  25 Cl25           1.0214    -5.2286     0.3326 Cl      
  26 H26           -1.1614     1.9256    -0.1588 H       
  27 H27           -0.1196    -1.7532    -2.0972 H       
  28 H28            1.0709     1.9063    -3.6627 H       
  29 H29            0.6402    -2.4122     0.3428 H       
  30 H30           -3.5697    -2.2179    -0.4511 H       
  31 H31           -4.6988    -4.3407    -0.6453 H       
  32 H32           -4.2111    -8.8260    -1.1300 H       
  33 H33           -6.2920    -9.9816    -1.7495 H       
  34 H34           -8.3639    -8.6992    -2.0851 H       
  35 H35           -6.2991    -5.0799    -1.1760 H       
  36 H36           -3.0813     0.2162     0.8423 H       
  37 H37           -2.0439    -0.6432     2.0057 H       
  38 H38           -1.5111     0.9085     1.3152 H       
@<TRIPOS>BOND
   1    1    2 ar
   2    1    6 ar
   3    1   26 1
   4    2    3 ar
   5    2   15 1
   6    3    4 ar
   7    3   27 1
   8    4    5 ar
   9    5    6 ar
  10    5   28 1
  11    7    8 ar
  12    7   12 ar
  13    7   15 1
  14    8    9 ar
  15    8   29 1
  16    9   10 ar
  17    9   25 1
  18   10   11 ar
  19   11   12 ar
  20   11   13 1
  21   12   30 1
  22   13   14 am
  23   13   31 1
  24   14   16 1
  25   14   17 2
  26   15   24 1
  27   16   18 ar
  28   16   22 ar
  29   18   19 ar
  30   18   32 1
  31   19   20 ar
  32   19   33 1
  33   20   21 ar
  34   20   34 1
  35   21   22 ar
  36   21   23 1
  37   22   35 1
  38   24   36 1
  39   24   37 1
  40   24   38 1

#	End of record

