#	Name: ASD08830259
#	Creating user name:	WinNT
#	Creation time:	15. 06. 2019 21:20

#	Modifying user name:	WinNT
#	Modification time:	15. 06. 2019 21:20

#	Program:	/corina/corina34_cracker 3.40 0067  02.08.2006

@<TRIPOS>MOLECULE
ASD08830259
  28   29    0    0    0
SMALL
NO_CHARGES


@<TRIPOS>ATOM
   1 C1            -0.0067     1.3505    -0.2013 C.ar    
   2 C2             0.0071    -0.0122     0.0184 C.ar    
   3 C3             1.2171    -0.6727     0.2285 C.ar    
   4 C4             2.4097     0.0460     0.2153 C.ar    
   5 C5             2.3871     1.4149    -0.0067 C.ar    
   6 C6             1.1766     2.0647    -0.2145 C.ar    
   7 C7             1.2336    -2.1365     0.4657 C.ar    
   8 C8             0.2004    -2.7529     1.1786 C.ar    
   9 C9             0.2631    -4.1223     1.3728 C.ar    
  10 N10            1.2904    -4.7980     0.8814 N.ar    
  11 C11            2.2498    -4.1869     0.2128 C.ar    
  12 N12            2.2295    -2.8866    -0.0012 N.ar    
  13 Cl13           3.5730    -5.1233    -0.4083 Cl      
  14 N14            3.5823     2.1410    -0.0208 N.am    
  15 C15            4.7015     1.5869    -0.5274 C.2     
  16 C16            5.9324     2.3843    -0.6366 C.2     
  17 C17            7.0370     1.8374    -1.1366 C.2     
  18 O18            4.6937     0.4273    -0.8943 O.2     
  19 Cl19          -1.1264    -1.8247     1.8046 Cl      
  20 H20           -0.9446     1.8594    -0.3679 H       
  21 H21           -0.9195    -0.5669     0.0280 H       
  22 H22            3.3494    -0.4610     0.3778 H       
  23 H23            1.1603     3.1306    -0.3873 H       
  24 H24           -0.5163    -4.6332     1.9188 H       
  25 H25            3.6057     3.0435     0.3340 H       
  26 H26            5.9394     3.4140    -0.3108 H       
  27 H27            7.9409     2.4230    -1.2167 H       
  28 H28            7.0300     0.8078    -1.4624 H       
@<TRIPOS>BOND
   1    1    2 ar
   2    1    6 ar
   3    1   20 1
   4    2    3 ar
   5    2   21 1
   6    3    4 ar
   7    3    7 1
   8    4    5 ar
   9    4   22 1
  10    5    6 ar
  11    5   14 1
  12    6   23 1
  13    7    8 ar
  14    7   12 ar
  15    8    9 ar
  16    8   19 1
  17    9   10 ar
  18    9   24 1
  19   10   11 ar
  20   11   12 ar
  21   11   13 1
  22   14   15 am
  23   14   25 1
  24   15   16 1
  25   15   18 2
  26   16   17 2
  27   16   26 1
  28   17   27 1
  29   17   28 1

#	End of record

