#	Name: ASD01910369
#	Creating user name:	WinNT
#	Creation time:	15. 06. 2019 19:55

#	Modifying user name:	WinNT
#	Modification time:	15. 06. 2019 19:55

#	Program:	/corina/corina34_cracker 3.40 0067  02.08.2006

@<TRIPOS>MOLECULE
ASD01910369
  49   51    0    0    0
SMALL
NO_CHARGES


@<TRIPOS>ATOM
   1 C1            -1.6328     0.5553    -0.0196 C.ar    
   2 C2            -1.3741    -0.8490    -0.1274 C.1     
   3 C3            -1.1621    -2.0003    -0.2159 C.1     
   4 C4            -0.9034    -3.4046    -0.3237 C.ar    
   5 C5            -1.9500    -4.2894    -0.6064 C.ar    
   6 C6            -1.7025    -5.6286    -0.7096 C.ar    
   7 C7            -0.4040    -6.1155    -0.5324 C.ar    
   8 C8             0.6420    -5.2321    -0.2495 C.ar    
   9 C9             0.3970    -3.8920    -0.1522 C.ar    
  10 C10           -0.1373    -7.5632    -0.6436 C.2     
  11 O11           -1.0469    -8.3318    -0.8892 O.2     
  12 N12            1.1143    -8.0330    -0.4729 N.am    
  13 C13           -0.5898     1.4419     0.2626 C.ar    
  14 C14           -0.8466     2.7930     0.3650 C.ar    
  15 C15           -2.1332     3.2715     0.1896 C.ar    
  16 C16           -3.1709     2.3998    -0.0901 C.ar    
  17 C17           -2.9284     1.0468    -0.2017 C.ar    
  18 C18            1.3789    -9.4696    -0.5832 C.3     
  19 C19            2.8869    -9.7177    -0.5087 C.3     
  20 C20            3.1763   -11.2263    -0.6167 C.3     
  21 C21            4.0771   -11.3763    -1.8641 C.3     
  22 C22            4.6855    -9.9604    -2.0244 C.3     
  23 N23            3.5622    -9.0635    -1.6504 N.3     
  24 C24            4.0545    -7.7306    -1.2774 C.3     
  25 C25            4.8899    -7.8346     0.0001 C.3     
  26 H26           -2.9532    -3.9135    -0.7426 H       
  27 H27           -2.5101    -6.3116    -0.9277 H       
  28 H28            1.6447    -5.6090    -0.1121 H       
  29 H29            1.2052    -3.2097     0.0663 H       
  30 H30            1.8400    -7.4198    -0.2769 H       
  31 H31            0.4147     1.0698     0.4005 H       
  32 H32           -0.0417     3.4793     0.5831 H       
  33 H33           -2.3284     4.3306     0.2716 H       
  34 H34           -4.1725     2.7805    -0.2254 H       
  35 H35           -3.7393     0.3677    -0.4200 H       
  36 H36            0.8836    -9.9941     0.2339 H       
  37 H37            0.9969    -9.8373    -1.5356 H       
  38 H38            3.2807    -9.3304     0.4310 H       
  39 H39            3.7007   -11.5756     0.2728 H       
  40 H40            2.2478   -11.7810    -0.7517 H       
  41 H41            4.8595   -12.1146    -1.6884 H       
  42 H42            3.4836   -11.6424    -2.7388 H       
  43 H43            5.5282    -9.8248    -1.3465 H       
  44 H44            4.9890    -9.7867    -3.0568 H       
  45 H45            4.6710    -7.3324    -2.0833 H       
  46 H46            3.2081    -7.0658    -1.1050 H       
  47 H47            5.6477    -8.6083    -0.1232 H       
  48 H48            5.3754    -6.8784     0.1956 H       
  49 H49            4.2418    -8.0910     0.8382 H       
@<TRIPOS>BOND
   1    1    2 1
   2    1   13 ar
   3    1   17 ar
   4    2    3 3
   5    3    4 1
   6    4    5 ar
   7    4    9 ar
   8    5    6 ar
   9    5   26 1
  10    6    7 ar
  11    6   27 1
  12    7    8 ar
  13    7   10 1
  14    8    9 ar
  15    8   28 1
  16    9   29 1
  17   10   11 2
  18   10   12 am
  19   12   18 1
  20   12   30 1
  21   13   14 ar
  22   13   31 1
  23   14   15 ar
  24   14   32 1
  25   15   16 ar
  26   15   33 1
  27   16   17 ar
  28   16   34 1
  29   17   35 1
  30   18   19 1
  31   18   36 1
  32   18   37 1
  33   19   20 1
  34   19   23 1
  35   19   38 1
  36   20   21 1
  37   20   39 1
  38   20   40 1
  39   21   22 1
  40   21   41 1
  41   21   42 1
  42   22   23 1
  43   22   43 1
  44   22   44 1
  45   23   24 1
  46   24   25 1
  47   24   45 1
  48   24   46 1
  49   25   47 1
  50   25   48 1
  51   25   49 1

#	End of record

