#	Name: ASD04230009
#	Creating user name:	WinNT
#	Creation time:	15. 06. 2019 20:48

#	Modifying user name:	WinNT
#	Modification time:	15. 06. 2019 20:48

#	Program:	/corina/corina34_cracker 3.40 0067  02.08.2006

@<TRIPOS>MOLECULE
ASD04230009
  46   50    0    0    0
SMALL
NO_CHARGES


@<TRIPOS>ATOM
   1 C1            -1.6283     4.6703    -1.6558 C.ar    
   2 C2            -2.6523     5.3677    -2.3058 C.ar    
   3 C3            -3.9079     4.8142    -2.4128 C.ar    
   4 C4            -4.1614     3.5495    -1.8578 C.ar    
   5 C5            -3.1183     2.8366    -1.2332 C.ar    
   6 C6            -1.8604     3.4099    -1.1316 C.ar    
   7 C7            -5.4575     2.9842    -1.9260 C.2     
   8 C8            -5.7045     1.8290    -1.1915 C.2     
   9 C9            -4.5992     1.3015    -0.3727 C.2     
  10 O10           -3.3353     1.5859    -0.7588 O.3     
  11 C11           -7.0154     1.1618    -1.2304 C.2     
  12 N12           -7.2242     0.0437    -0.5075 N.am    
  13 O13           -7.9107     1.6195    -1.9150 O.2     
  14 C14           -8.5000    -0.5270    -0.4549 C.ar    
  15 C15           -8.6415    -1.9077    -0.3887 C.ar    
  16 C16           -9.9007    -2.4752    -0.3366 C.ar    
  17 C17          -11.0246    -1.6737    -0.3502 C.ar    
  18 C18          -10.8921    -0.2877    -0.4170 C.ar    
  19 C19           -9.6242     0.2852    -0.4632 C.ar    
  20 C20          -12.0994     0.5753    -0.4321 C.2     
  21 O21           -4.8170     0.6317     0.6197 O.2     
  22 O22           -0.3972     5.2308    -1.5433 O.3     
  23 O23           -2.4063     6.5970    -2.8333 O.3     
  24 C24          -13.3857     0.1501    -0.2897 C.2     
  25 N25          -14.1846     1.2566    -0.3628 N.pl3   
  26 C26          -13.3632     2.3388    -0.5493 C.2     
  27 N27          -12.1106     1.9092    -0.5827 N.2     
  28 C28          -15.5378     1.4212    -0.2858 C.2     
  29 C29          -16.0883     2.6486    -0.3922 C.2     
  30 C30          -15.2735     3.7768    -0.5836 C.2     
  31 C31          -13.9238     3.6280    -0.6604 C.2     
  32 H32           -4.6953     5.3507    -2.9214 H       
  33 H33           -1.0629     2.8764    -0.6359 H       
  34 H34           -6.2309     3.4361    -2.5294 H       
  35 H35           -6.4896    -0.3653    -0.0237 H       
  36 H36           -7.7654    -2.5391    -0.3781 H       
  37 H37          -10.0057    -3.5489    -0.2856 H       
  38 H38          -12.0069    -2.1207    -0.3094 H       
  39 H39           -9.5165     1.3586    -0.5150 H       
  40 H40           -0.2778     5.7602    -0.7430 H       
  41 H41           -2.1043     6.5777    -3.7517 H       
  42 H42          -13.7126    -0.8691    -0.1461 H       
  43 H43          -16.1737     0.5607    -0.1388 H       
  44 H44          -17.1603     2.7641    -0.3301 H       
  45 H45          -15.7167     4.7580    -0.6685 H       
  46 H46          -13.2878     4.4884    -0.8072 H       
@<TRIPOS>BOND
   1    1    2 ar
   2    1   22 1
   3    1    6 ar
   4    2    3 ar
   5    2   23 1
   6    3    4 ar
   7    3   32 1
   8    4    5 ar
   9    4    7 1
  10    5    6 ar
  11    5   10 1
  12    6   33 1
  13    7    8 2
  14    7   34 1
  15    8    9 1
  16    8   11 1
  17    9   10 1
  18    9   21 2
  19   11   12 am
  20   11   13 2
  21   12   14 1
  22   12   35 1
  23   14   15 ar
  24   14   19 ar
  25   15   16 ar
  26   15   36 1
  27   16   17 ar
  28   16   37 1
  29   17   18 ar
  30   17   38 1
  31   18   19 ar
  32   18   20 1
  33   19   39 1
  34   20   24 2
  35   20   27 1
  36   22   40 1
  37   23   41 1
  38   24   25 1
  39   24   42 1
  40   25   26 1
  41   25   28 1
  42   26   27 2
  43   26   31 1
  44   28   29 2
  45   28   43 1
  46   29   30 1
  47   29   44 1
  48   30   31 2
  49   30   45 1
  50   31   46 1

#	End of record

