#	Name: ASD01817039
#	Creating user name:	WinNT
#	Creation time:	15. 06. 2019 19:36

#	Modifying user name:	WinNT
#	Modification time:	15. 06. 2019 19:36

#	Program:	/corina/corina34_cracker 3.40 0067  02.08.2006

@<TRIPOS>MOLECULE
ASD01817039
  48   51    0    0    0
SMALL
NO_CHARGES


@<TRIPOS>ATOM
   1 C1            -0.0167     1.3817     0.0096 C.ar    
   2 C2             0.0021    -0.0041     0.0020 C.ar    
   3 C3            -1.1835    -0.7167     0.0095 C.ar    
   4 C4            -2.3940    -0.0414     0.0252 C.ar    
   5 C5            -2.4118     1.3550     0.0333 C.ar    
   6 C6            -1.2192     2.0614     0.0305 C.ar    
   7 N7            -3.7221    -0.4610     0.0357 N.am    
   8 C8            -4.5118     0.6293     0.0496 C.2     
   9 N9            -3.7514     1.7403     0.0485 N.am    
  10 C10            1.2797     2.1500     0.0014 C.3     
  11 F11            1.1824    -0.6612    -0.0132 F       
  12 O12           -5.7286     0.6130     0.0606 O.2     
  13 C13           -4.2471     3.1188     0.0608 C.3     
  14 C14           -5.1106     3.3631    -1.1799 C.3     
  15 C15           -5.6750     4.7848    -1.1308 C.3     
  16 N16           -6.4781     4.9521     0.0872 N.3     
  17 C17           -5.6594     4.7689     1.2924 C.3     
  18 C18           -5.0945     3.3467     1.3156 C.3     
  19 C19           -7.1488     6.2590     0.1001 C.3     
  20 C20           -8.0724     6.3489     1.3188 C.3     
  21 C21           -8.7062     7.7416     1.3673 C.3     
  22 O22           -7.6761     8.7310     1.4138 O.3     
  23 C23           -6.8101     8.7255     0.2771 C.3     
  24 C24           -6.1001     7.3723     0.1848 C.3     
  25 H25           -1.1661    -1.7966     0.0028 H       
  26 H26           -1.2301     3.1414     0.0372 H       
  27 H27           -4.0262    -1.3820     0.0331 H       
  28 H28            1.5825     2.3408    -1.0282 H       
  29 H29            1.1435     3.0981     0.5216 H       
  30 H30            2.0508     1.5669     0.5048 H       
  31 H31           -3.4037     3.8093     0.0593 H       
  32 H32           -4.5017     3.2441    -2.0762 H       
  33 H33           -5.9314     2.6462    -1.1990 H       
  34 H34           -4.8538     5.5016    -1.1257 H       
  35 H35           -6.3018     4.9571    -2.0057 H       
  36 H36           -4.8383     5.4857     1.2862 H       
  37 H37           -6.2749     4.9296     2.1775 H       
  38 H38           -5.9151     2.6295     1.3358 H       
  39 H39           -4.4742     3.2160     2.2023 H       
  40 H40           -7.7350     6.3770    -0.8112 H       
  41 H41           -8.8555     5.5950     1.2388 H       
  42 H42           -7.4943     6.1800     2.2273 H       
  43 H43           -9.3169     7.8943     0.4774 H       
  44 H44           -9.3314     7.8257     2.2562 H       
  45 H45           -7.3960     8.8910    -0.6270 H       
  46 H46           -6.0693     9.5184     0.3806 H       
  47 H47           -5.4821     7.2241     1.0703 H       
  48 H48           -5.4727     7.3503    -0.7063 H       
@<TRIPOS>BOND
   1    1    2 ar
   2    1   10 1
   3    1    6 ar
   4    2    3 ar
   5    2   11 1
   6    3    4 ar
   7    3   25 1
   8    4    5 ar
   9    4    7 1
  10    5    6 ar
  11    5    9 1
  12    6   26 1
  13    7    8 am
  14    7   27 1
  15    8    9 am
  16    8   12 2
  17    9   13 1
  18   10   28 1
  19   10   29 1
  20   10   30 1
  21   13   14 1
  22   13   18 1
  23   13   31 1
  24   14   15 1
  25   14   32 1
  26   14   33 1
  27   15   16 1
  28   15   34 1
  29   15   35 1
  30   16   17 1
  31   16   19 1
  32   17   18 1
  33   17   36 1
  34   17   37 1
  35   18   38 1
  36   18   39 1
  37   19   20 1
  38   19   24 1
  39   19   40 1
  40   20   21 1
  41   20   41 1
  42   20   42 1
  43   21   22 1
  44   21   43 1
  45   21   44 1
  46   22   23 1
  47   23   24 1
  48   23   45 1
  49   23   46 1
  50   24   47 1
  51   24   48 1

#	End of record

