#	Name: ASD09116474
#	Creating user name:	WinNT
#	Creation time:	15. 06. 2019 21:21

#	Modifying user name:	WinNT
#	Modification time:	15. 06. 2019 21:21

#	Program:	/corina/corina34_cracker 3.40 0067  02.08.2006

@<TRIPOS>MOLECULE
ASD09116474
  73   79    0    0    0
SMALL
NO_CHARGES


@<TRIPOS>ATOM
   1 N1            -0.5640     3.8825     0.5380 N.2     
   2 N2            -1.1114     5.0495     1.0949 N.pl3   
   3 C3             0.7354     4.0545     0.4897 C.2     
   4 N4             1.0342     5.2617     0.9839 N.2     
   5 C5            -0.0699     5.8747     1.3536 C.2     
   6 N6            -0.1518     7.1380     1.9078 N.pl3   
   7 C7            -2.4624     5.3079     1.3340 C.ar    
   8 N8             1.6572     3.1282     0.0023 N.pl3   
   9 C9             3.0104     3.4749    -0.1014 C.ar    
  10 C10            3.9934     2.5017    -0.0074 C.ar    
  11 C11            3.3852     4.8022    -0.3063 C.ar    
  12 C12            4.7322     5.0987    -0.4031 C.ar    
  13 C13            5.6625     4.0704    -0.2936 C.ar    
  14 N14            5.2704     2.8207    -0.1046 N.ar    
  15 N15           -2.8152     6.1740     2.2721 N.ar    
  16 N16           -4.0443     6.4402     2.5386 N.ar    
  17 C17           -5.0374     5.8580     1.8860 C.ar    
  18 C18           -4.7604     4.9454     0.8640 C.ar    
  19 C19           -3.4422     4.6571     0.5800 C.ar    
  20 C20           -6.4545     6.1219     2.2275 C.ar    
  21 C21           -7.3146     5.0398     2.4211 C.ar    
  22 C22           -6.7706     3.6402     2.3337 C.3     
  23 C23           -6.5558     3.2158     0.8835 C.3     
  24 C24           -5.8887     4.3334     0.0860 C.3     
  25 C25           -6.9327     7.4216     2.3518 C.ar    
  26 C26           -8.2650     7.6345     2.6486 C.ar    
  27 C27           -9.1188     6.5597     2.8183 C.ar    
  28 C28           -8.6446     5.2642     2.7047 C.ar    
  29 N29            7.0218     4.3584    -0.3897 N.3     
  30 C30            7.4170     5.3701     0.6002 C.3     
  31 C31            7.8300     3.1397    -0.2444 C.3     
  32 C32            9.3087     3.4856    -0.4349 C.3     
  33 N33            9.7039     4.4973     0.5550 N.3     
  34 C34            8.8957     5.7160     0.4097 C.3     
  35 C35           11.1375     4.8011     0.4537 C.3     
  36 C36           11.4622     6.0227     1.3158 C.3     
  37 C37           12.9316     6.4309     1.4378 C.3     
  38 C38           11.9696     7.2769     0.6013 C.3     
  39 C39           10.1562     2.2262    -0.2439 C.3     
  40 H40            0.6549     7.6559     2.0557 H       
  41 H41           -1.0160     7.5068     2.1487 H       
  42 H42            1.3613     2.2439    -0.2648 H       
  43 H43            3.7110     1.4708     0.1476 H       
  44 H44            2.6408     5.5804    -0.3878 H       
  45 H45            5.0581     6.1161    -0.5620 H       
  46 H46           -3.1773     3.9484    -0.1906 H       
  47 H47           -5.8191     3.5937     2.8635 H       
  48 H48           -7.4740     2.9542     2.8055 H       
  49 H49           -5.9215     2.3297     0.8591 H       
  50 H50           -7.5194     2.9790     0.4324 H       
  51 H51           -6.6272     5.1027    -0.1396 H       
  52 H52           -5.5007     3.9254    -0.8473 H       
  53 H53           -6.2659     8.2605     2.2173 H       
  54 H54           -8.6407     8.6421     2.7480 H       
  55 H55          -10.1614     6.7322     3.0414 H       
  56 H56           -9.3169     4.4294     2.8371 H       
  57 H57            6.8132     6.2673     0.4642 H       
  58 H58            7.2622     4.9760     1.6046 H       
  59 H59            7.6799     2.7203     0.7504 H       
  60 H60            7.5273     2.4108    -0.9962 H       
  61 H61            9.4635     3.8797    -1.4393 H       
  62 H62            9.0458     6.1355    -0.5851 H       
  63 H63            9.1984     6.4449     1.1615 H       
  64 H64           11.7158     3.9458     0.8031 H       
  65 H65           11.3918     5.0116    -0.5851 H       
  66 H66           10.8264     6.1636     2.1899 H       
  67 H67           13.2626     6.8406     2.3922 H       
  68 H68           13.6671     5.8291     0.9040 H       
  69 H69           12.0722     7.2317    -0.4829 H       
  70 H70           11.6677     8.2432     1.0053 H       
  71 H71            9.8616     1.4754    -0.9771 H       
  72 H72           11.2092     2.4729    -0.3797 H       
  73 H73           10.0017     1.8332     0.7609 H       
@<TRIPOS>BOND
   1    1    2 1
   2    1    3 2
   3    2    7 1
   4    2    5 1
   5    3    4 1
   6    3    8 1
   7    4    5 2
   8    5    6 1
   9    6   40 1
  10    6   41 1
  11    7   15 ar
  12    7   19 ar
  13    8    9 1
  14    8   42 1
  15    9   10 ar
  16    9   11 ar
  17   10   14 ar
  18   10   43 1
  19   11   12 ar
  20   11   44 1
  21   12   13 ar
  22   12   45 1
  23   13   14 ar
  24   13   29 1
  25   15   16 ar
  26   16   17 ar
  27   17   18 ar
  28   17   20 1
  29   18   19 ar
  30   18   24 1
  31   19   46 1
  32   20   21 ar
  33   20   25 ar
  34   21   22 1
  35   21   28 ar
  36   22   23 1
  37   22   47 1
  38   22   48 1
  39   23   24 1
  40   23   49 1
  41   23   50 1
  42   24   51 1
  43   24   52 1
  44   25   26 ar
  45   25   53 1
  46   26   27 ar
  47   26   54 1
  48   27   28 ar
  49   27   55 1
  50   28   56 1
  51   29   30 1
  52   29   31 1
  53   30   34 1
  54   30   57 1
  55   30   58 1
  56   31   32 1
  57   31   59 1
  58   31   60 1
  59   32   33 1
  60   32   39 1
  61   32   61 1
  62   33   34 1
  63   33   35 1
  64   34   62 1
  65   34   63 1
  66   35   36 1
  67   35   64 1
  68   35   65 1
  69   36   37 1
  70   36   38 1
  71   36   66 1
  72   37   38 1
  73   37   67 1
  74   37   68 1
  75   38   69 1
  76   38   70 1
  77   39   71 1
  78   39   72 1
  79   39   73 1

#	End of record

