#	Name: ASD03080195
#	Creating user name:	WinNT
#	Creation time:	15. 06. 2019 20:26

#	Modifying user name:	WinNT
#	Modification time:	15. 06. 2019 20:26

#	Program:	/corina/corina34_cracker 3.40 0067  02.08.2006

@<TRIPOS>MOLECULE
ASD03080195
  41   43    0    0    0
SMALL
NO_CHARGES


@<TRIPOS>ATOM
   1 C1            -0.0962     1.4049    -0.2899 C.ar    
   2 C2            -0.1260     0.0287    -0.4742 C.ar    
   3 C3             0.9145    -0.5856    -1.1587 C.ar    
   4 C4             1.9564     0.2157    -1.6370 C.ar    
   5 C5             1.9096     1.5913    -1.4090 C.ar    
   6 N6             0.9019     2.1305    -0.7542 N.ar    
   7 C7             3.0893    -0.3856    -2.3719 C.2     
   8 C8             4.0713     0.3837    -2.8206 C.2     
   9 N9             7.6585    -0.5204    -3.5631 N.3     
  10 C10            6.5304     0.0586    -2.8225 C.3     
  11 C11            5.2263    -0.2292    -3.5698 C.3     
  12 C12            5.3039     0.3765    -4.9739 C.3     
  13 C13            6.5151    -0.2070    -5.7067 C.3     
  14 C14            7.7819     0.0802    -4.8975 C.3     
  15 O15           -1.1605    -0.7078     0.0098 O.3     
  16 C16           -1.0885    -2.0600    -0.1027 C.ar    
  17 C17           -0.4856    -2.8096     0.8974 C.ar    
  18 C18           -0.4137    -4.1841     0.7805 C.ar    
  19 C19           -0.9413    -4.8131    -0.3321 C.ar    
  20 C20           -1.5426    -4.0686    -1.3301 C.ar    
  21 C21           -1.6227    -2.6943    -1.2153 C.ar    
  22 H22           -0.9050     1.8885     0.2377 H       
  23 H23            0.9192    -1.6539    -1.3173 H       
  24 H24            2.7082     2.2207    -1.7730 H       
  25 H25            3.1171    -1.4515    -2.5433 H       
  26 H26            4.0435     1.4496    -2.6492 H       
  27 H27            8.5184    -0.4268    -3.0436 H       
  28 H28            6.4840    -0.3837    -1.8274 H       
  29 H29            6.6684     1.1362    -2.7347 H       
  30 H30            5.0807    -1.3068    -3.6459 H       
  31 H31            4.3945     0.1367    -5.5249 H       
  32 H32            5.4105     1.4587    -4.8984 H       
  33 H33            6.3898    -1.2842    -5.8165 H       
  34 H34            6.6005     0.2522    -6.6916 H       
  35 H35            7.9140     1.1577    -4.8000 H       
  36 H36            8.6444    -0.3465    -5.4094 H       
  37 H37           -0.0727    -2.3187     1.7663 H       
  38 H38            0.0554    -4.7679     1.5586 H       
  39 H39           -0.8834    -5.8878    -0.4219 H       
  40 H40           -1.9539    -4.5623    -2.1981 H       
  41 H41           -2.0967    -2.1136    -1.9928 H       
@<TRIPOS>BOND
   1    1    2 ar
   2    1    6 ar
   3    1   22 1
   4    2    3 ar
   5    2   15 1
   6    3    4 ar
   7    3   23 1
   8    4    5 ar
   9    4    7 1
  10    5    6 ar
  11    5   24 1
  12    7    8 2
  13    7   25 1
  14    8   11 1
  15    8   26 1
  16    9   10 1
  17    9   14 1
  18    9   27 1
  19   10   11 1
  20   10   28 1
  21   10   29 1
  22   11   12 1
  23   11   30 1
  24   12   13 1
  25   12   31 1
  26   12   32 1
  27   13   14 1
  28   13   33 1
  29   13   34 1
  30   14   35 1
  31   14   36 1
  32   15   16 1
  33   16   17 ar
  34   16   21 ar
  35   17   18 ar
  36   17   37 1
  37   18   19 ar
  38   18   38 1
  39   19   20 ar
  40   19   39 1
  41   20   21 ar
  42   20   40 1
  43   21   41 1

#	End of record

