#	Name: ASD03090433
#	Creating user name:	WinNT
#	Creation time:	15. 06. 2019 20:28

#	Modifying user name:	WinNT
#	Modification time:	15. 06. 2019 20:28

#	Program:	/corina/corina34_cracker 3.40 0067  02.08.2006

@<TRIPOS>MOLECULE
ASD03090433
  36   38    0    0    0
SMALL
NO_CHARGES


@<TRIPOS>ATOM
   1 C1            -0.0184     1.5028     0.0103 C.2     
   2 C2             0.0021    -0.0041     0.0020 C.3     
   3 O3             1.0236     2.1234     0.0037 O.2     
   4 N4            -1.1946     2.1607     0.0195 N.am    
   5 C5            -1.2135     3.5563     0.0271 C.ar    
   6 C6            -2.4343     4.2315     0.0366 C.ar    
   7 C7            -2.4356     5.6191     0.0500 C.ar    
   8 C8            -1.2156     6.2815     0.0534 C.ar    
   9 C9            -0.0468     5.5471     0.0435 C.ar    
  10 N10           -0.0741     4.2276     0.0309 N.ar    
  11 O11           -3.6053     3.5404     0.0323 O.3     
  12 C12           -4.8112     4.3070     0.0426 C.3     
  13 F13           -4.8534     5.1251    -1.0914 F       
  14 F14           -5.9124     3.4442     0.0365 F       
  15 F15           -4.8483     5.1023     1.1930 F       
  16 N16            5.3328    -1.8109     0.2147 N.pl3   
  17 C17            5.5055    -1.8721     1.5707 C.2     
  18 C18            4.3789    -1.4909     2.1931 C.2     
  19 C19            3.4051    -1.1584     1.1505 C.ar    
  20 C20            2.0827    -0.7105     1.1648 C.ar    
  21 C21            1.4295    -0.4870    -0.0142 C.ar    
  22 C22            2.0701    -0.7016    -1.2271 C.ar    
  23 C23            3.3741    -1.1438    -1.2642 C.ar    
  24 C24            4.0585    -1.3779    -0.0758 C.ar    
  25 H25           -0.4983    -0.3791     0.8948 H       
  26 H26           -0.5153    -0.3696    -0.8850 H       
  27 H27           -2.0280     1.6644     0.0207 H       
  28 H28           -3.3640     6.1708     0.0572 H       
  29 H29           -1.1813     7.3609     0.0634 H       
  30 H30            0.9038     6.0597     0.0462 H       
  31 H31            6.0088    -2.0353    -0.4438 H       
  32 H32            6.4136    -2.1816     2.0667 H       
  33 H33            4.2205    -1.4392     3.2602 H       
  34 H34            1.5777    -0.5422     2.1045 H       
  35 H35            1.5405    -0.5205    -2.1507 H       
  36 H36            3.8637    -1.3081    -2.2128 H       
@<TRIPOS>BOND
   1    1    2 1
   2    1    3 2
   3    1    4 am
   4    2   21 1
   5    2   25 1
   6    2   26 1
   7    4    5 1
   8    4   27 1
   9    5    6 ar
  10    5   10 ar
  11    6    7 ar
  12    6   11 1
  13    7    8 ar
  14    7   28 1
  15    8    9 ar
  16    8   29 1
  17    9   10 ar
  18    9   30 1
  19   11   12 1
  20   12   13 1
  21   12   14 1
  22   12   15 1
  23   16   17 1
  24   16   24 1
  25   16   31 1
  26   17   18 2
  27   17   32 1
  28   18   19 1
  29   18   33 1
  30   19   20 ar
  31   19   24 ar
  32   20   21 ar
  33   20   34 1
  34   21   22 ar
  35   22   23 ar
  36   22   35 1
  37   23   24 ar
  38   23   36 1

#	End of record

