#	Name: ASD01231311
#	Creating user name:	WinNT
#	Creation time:	15. 06. 2019 19:15

#	Modifying user name:	WinNT
#	Modification time:	15. 06. 2019 19:15

#	Program:	/corina/corina34_cracker 3.40 0067  02.08.2006

@<TRIPOS>MOLECULE
ASD01231311
  36   37    0    0    0
SMALL
NO_CHARGES


@<TRIPOS>ATOM
   1 C1            -0.0187     1.5258     0.0104 C.3     
   2 C2             0.0021    -0.0041     0.0020 C.3     
   3 C3             0.7421    -0.5109     1.2415 C.3     
   4 S4            -1.6997    -0.6320     0.0149 S.o2    
   5 O5            -1.7138    -2.0386    -0.1864 O.2     
   6 O6            -2.4435    -0.0351     1.0684 O.2     
   7 N7            -2.3782    -0.0153    -1.3642 N.am    
   8 C8            -2.7399    -1.5695    -3.2588 C.3     
   9 C9            -1.8762    -0.4306    -2.6764 C.3     
  10 C10           -2.0651     0.6937    -3.7169 C.3     
  11 C11           -2.3860    -0.0172    -5.0142 C.ar    
  12 C12           -2.3423     0.4379    -6.3216 C.ar    
  13 C13           -2.6847    -0.4032    -7.3620 C.ar    
  14 C14           -3.0725    -1.7039    -7.0988 C.ar    
  15 C15           -3.1168    -2.1594    -5.7958 C.ar    
  16 C16           -2.7738    -1.3175    -4.7510 C.ar    
  17 C17           -2.6351     0.0961    -8.7831 C.3     
  18 Cl18          -0.9976    -0.2125    -9.4717 Cl      
  19 H19            1.0039     1.9031     0.0027 H       
  20 H20           -0.5459     1.8868    -0.8726 H       
  21 H21           -0.5289     1.8773     0.9072 H       
  22 H22            0.5123    -0.3556    -0.8948 H       
  23 H23            0.2319    -0.1594     2.1383 H       
  24 H24            0.7568    -1.6008     1.2356 H       
  25 H25            1.7647    -0.1336     1.2338 H       
  26 H26           -3.1078     0.6209    -1.3031 H       
  27 H27           -2.2825    -2.5363    -3.0488 H       
  28 H28           -3.7477    -1.5292    -2.8455 H       
  29 H29           -0.8300    -0.7301    -2.6152 H       
  30 H30           -2.8913     1.3427    -3.4268 H       
  31 H31           -1.1469     1.2720    -3.8197 H       
  32 H32           -2.0398     1.4539    -6.5280 H       
  33 H33           -3.3410    -2.3629    -7.9112 H       
  34 H34           -3.4198    -3.1756    -5.5909 H       
  35 H35           -3.3839    -0.4266    -9.3782 H       
  36 H36           -2.8404     1.1664    -8.7995 H       
@<TRIPOS>BOND
   1    1    2 1
   2    1   19 1
   3    1   20 1
   4    1   21 1
   5    2    3 1
   6    2    4 1
   7    2   22 1
   8    3   23 1
   9    3   24 1
  10    3   25 1
  11    4    5 2
  12    4    6 2
  13    4    7 am
  14    7    9 1
  15    7   26 1
  16    8    9 1
  17    8   16 1
  18    8   27 1
  19    8   28 1
  20    9   10 1
  21    9   29 1
  22   10   11 1
  23   10   30 1
  24   10   31 1
  25   11   12 ar
  26   11   16 ar
  27   12   13 ar
  28   12   32 1
  29   13   14 ar
  30   13   17 1
  31   14   15 ar
  32   14   33 1
  33   15   16 ar
  34   15   34 1
  35   17   18 1
  36   17   35 1
  37   17   36 1

#	End of record

