#	Name: ASD01150561
#	Creating user name:	WinNT
#	Creation time:	15. 06. 2019 19:04

#	Modifying user name:	WinNT
#	Modification time:	15. 06. 2019 19:04

#	Program:	/corina/corina34_cracker 3.40 0067  02.08.2006

@<TRIPOS>MOLECULE
ASD01150561
  52   54    0    0    0
SMALL
NO_CHARGES


@<TRIPOS>ATOM
   1 C1             0.4933     1.3919    -0.9465 C.ar    
   2 C2             0.4639     0.0109    -0.9224 C.ar    
   3 C3             1.9479     0.0102     0.9677 C.ar    
   4 C4             1.9789     1.3966     0.9446 C.ar    
   5 C5             1.2509     2.0887    -0.0132 C.ar    
   6 N6             1.2801     3.4880    -0.0392 N.am    
   7 C7             0.1264     4.1736    -0.1217 C.2     
   8 N8             0.1177     5.5193    -0.1489 N.am    
   9 C9             1.2790     6.2039    -0.0935 C.2     
  10 C10            2.5443     5.4601    -0.0031 C.2     
  11 N11            2.5098     4.1538     0.0269 N.2     
  12 O12            1.2793     7.4207    -0.1184 O.2     
  13 C13           -1.1539     6.2413    -0.2392 C.3     
  14 O14           -0.9269     3.5677    -0.1731 O.2     
  15 C15           -1.6746     6.5169     1.1478 C.ar    
  16 O16            3.7302     6.1204     0.0542 O.3     
  17 C17            4.9130     5.3232     0.1408 C.3     
  18 C18            1.1879    -0.6824     0.0311 C.ar    
  19 C19           -1.3282     7.6807     1.8040 C.ar    
  20 N20           -1.7786     7.9328     3.0186 N.ar    
  21 C21           -2.5752     7.0866     3.6531 C.ar    
  22 C22           -2.9647     5.8942     3.0512 C.ar    
  23 C23           -2.5127     5.6052     1.7765 C.ar    
  24 F24            1.1564    -2.0329     0.0527 F       
  25 N25            2.6816    -0.6915     1.9324 N.am    
  26 C26            2.9446    -0.1217     3.1251 C.2     
  27 C27            3.6402    -0.9142     4.2018 C.3     
  28 O28            2.6215     1.0289     3.3320 O.2     
  29 N29           -3.0259     7.3921     4.9320 N.pl3   
  30 C30           -3.8168     6.4139     5.6830 C.3     
  31 C31           -2.7101     8.6922     5.5289 C.3     
  32 H32           -0.0696     1.9304    -1.6945 H       
  33 H33           -0.1257    -0.5284    -1.6489 H       
  34 H34            2.5683     1.9367     1.6708 H       
  35 H35           -0.9998     7.1844    -0.7635 H       
  36 H36           -1.8774     5.6360    -0.7853 H       
  37 H37            5.7871     5.9733     0.1798 H       
  38 H38            4.8742     4.7121     1.0425 H       
  39 H39            4.9800     4.6764    -0.7339 H       
  40 H40           -0.6798     8.3942     1.3173 H       
  41 H41           -3.6142     5.2054     3.5709 H       
  42 H42           -2.7984     4.6873     1.2842 H       
  43 H43            3.0005    -1.5876     1.7421 H       
  44 H44            3.8502    -1.9190     3.8351 H       
  45 H45            4.5754    -0.4219     4.4685 H       
  46 H46            2.9981    -0.9749     5.0805 H       
  47 H47           -3.1503     5.7792     6.2669 H       
  48 H48           -4.5001     6.9363     6.3525 H       
  49 H49           -4.3884     5.7985     4.9883 H       
  50 H50           -2.1191     9.2803     4.8269 H       
  51 H51           -3.6352     9.2213     5.7576 H       
  52 H52           -2.1411     8.5421     6.4464 H       
@<TRIPOS>BOND
   1    1    2 ar
   2    1    5 ar
   3    1   32 1
   4    2   18 ar
   5    2   33 1
   6    3    4 ar
   7    3   25 1
   8    3   18 ar
   9    4    5 ar
  10    4   34 1
  11    5    6 1
  12    6    7 am
  13    6   11 1
  14    7    8 am
  15    7   14 2
  16    8    9 am
  17    8   13 1
  18    9   10 1
  19    9   12 2
  20   10   11 2
  21   10   16 1
  22   13   15 1
  23   13   35 1
  24   13   36 1
  25   15   19 ar
  26   15   23 ar
  27   16   17 1
  28   17   37 1
  29   17   38 1
  30   17   39 1
  31   18   24 1
  32   19   20 ar
  33   19   40 1
  34   20   21 ar
  35   21   22 ar
  36   21   29 1
  37   22   23 ar
  38   22   41 1
  39   23   42 1
  40   25   26 am
  41   25   43 1
  42   26   27 1
  43   26   28 2
  44   27   44 1
  45   27   45 1
  46   27   46 1
  47   29   30 1
  48   29   31 1
  49   30   47 1
  50   30   48 1
  51   30   49 1
  52   31   50 1
  53   31   51 1
  54   31   52 1

#	End of record

