#	Name: ASD01918118
#	Creating user name:	WinNT
#	Creation time:	15. 06. 2019 20:10

#	Modifying user name:	WinNT
#	Modification time:	15. 06. 2019 20:10

#	Program:	/corina/corina34_cracker 3.40 0067  02.08.2006

@<TRIPOS>MOLECULE
ASD01918118
  41   43    0    0    0
SMALL
NO_CHARGES


@<TRIPOS>ATOM
   1 N1            -0.0169     1.3955     0.0085 N.am    
   2 C2             0.0023    -0.0040     0.0051 C.2     
   3 C3             2.4248    -0.1102    -0.5670 C.3     
   4 C4             2.2005     1.3388    -1.0141 C.3     
   5 C5             1.3003     2.0622    -0.0062 C.3     
   6 C6            -0.9996    -0.8779     0.2410 C.2     
   7 C7            -0.4724    -2.1700     0.1203 C.2     
   8 N8             0.8009    -2.0712    -0.1779 N.2     
   9 N9             1.1278    -0.7182    -0.2583 N.pl3   
  10 C10           -1.2379    -3.4552     0.3027 C.3     
  11 N11           -1.7001    -3.9375    -1.0012 N.pl3   
  12 C12           -1.1698     2.0934     0.0191 C.2     
  13 O13           -2.2310     1.5127    -0.0695 O.2     
  14 C14           -0.8955    -4.7965    -1.7533 C.ar    
  15 C15           -1.3321    -5.2548    -2.9898 C.ar    
  16 C16           -0.5339    -6.1036    -3.7311 C.ar    
  17 C17            0.6989    -6.4974    -3.2437 C.ar    
  18 C18            1.1366    -6.0431    -2.0132 C.ar    
  19 C19            0.3457    -5.1898    -1.2691 C.ar    
  20 C20           -1.1405     3.5952     0.1408 C.3     
  21 C21           -3.0061    -3.5189    -1.5161 C.3     
  22 H22            2.9082    -0.6689    -1.3685 H       
  23 H23            3.0554    -0.1244     0.3219 H       
  24 H24            3.1604     1.8515    -1.0754 H       
  25 H25            1.7246     1.3455    -1.9947 H       
  26 H26            1.1802     3.1038    -0.3041 H       
  27 H27            1.7476     2.0115     0.9865 H       
  28 H28           -2.0224    -0.6262     0.4800 H       
  29 H29           -0.5888    -4.2034     0.7576 H       
  30 H30           -2.0969    -3.2777     0.9497 H       
  31 H31           -2.2950    -4.9479    -3.3708 H       
  32 H32           -0.8729    -6.4606    -4.6923 H       
  33 H33            1.3210    -7.1616    -3.8253 H       
  34 H34            2.1000    -6.3525    -1.6354 H       
  35 H35            0.6883    -4.8351    -0.3083 H       
  36 H36           -1.0026     4.0371    -0.8460 H       
  37 H37           -2.0814     3.9436     0.5667 H       
  38 H38           -0.3162     3.8910     0.7898 H       
  39 H39           -2.8909    -2.6051    -2.0991 H       
  40 H40           -3.4157    -4.3052    -2.1502 H       
  41 H41           -3.6835    -3.3349    -0.6822 H       
@<TRIPOS>BOND
   1    1    2 1
   2    1    5 1
   3    1   12 am
   4    2    6 2
   5    2    9 1
   6    3    4 1
   7    3    9 1
   8    3   22 1
   9    3   23 1
  10    4    5 1
  11    4   24 1
  12    4   25 1
  13    5   26 1
  14    5   27 1
  15    6    7 1
  16    6   28 1
  17    7    8 2
  18    7   10 1
  19    8    9 1
  20   10   11 1
  21   10   29 1
  22   10   30 1
  23   11   14 1
  24   11   21 1
  25   12   13 2
  26   12   20 1
  27   14   15 ar
  28   14   19 ar
  29   15   16 ar
  30   15   31 1
  31   16   17 ar
  32   16   32 1
  33   17   18 ar
  34   17   33 1
  35   18   19 ar
  36   18   34 1
  37   19   35 1
  38   20   36 1
  39   20   37 1
  40   20   38 1
  41   21   39 1
  42   21   40 1
  43   21   41 1

#	End of record

