#	Name: ASD03092086
#	Creating user name:	WinNT
#	Creation time:	15. 06. 2019 20:31

#	Modifying user name:	WinNT
#	Modification time:	15. 06. 2019 20:31

#	Program:	/corina/corina34_cracker 3.40 0067  02.08.2006

@<TRIPOS>MOLECULE
ASD03092086
  46   48    0    0    0
SMALL
NO_CHARGES


@<TRIPOS>ATOM
   1 N1            -0.3123     1.4440    -0.3242 N.pl3   
   2 C2            -0.3570     0.1578     0.1259 C.2     
   3 C3            -1.6629    -0.1352     0.3985 C.2     
   4 C4            -2.4268     1.0017     0.1061 C.2     
   5 N5            -1.6198     1.9460    -0.3200 N.2     
   6 N6            -3.8150     1.1143     0.2494 N.pl3   
   7 C7            -4.4421     2.3460     0.0373 C.ar    
   8 C8            -5.7707     2.3899    -0.3648 C.ar    
   9 C9            -6.3883     3.6077    -0.5733 C.ar    
  10 C10           -5.6837     4.7841    -0.3820 C.ar    
  11 C11           -3.7389     3.5278     0.2341 C.ar    
  12 C12            0.7970    -0.7532     0.2891 C.ar    
  13 C13            0.8905     2.1733    -0.7335 C.3     
  14 C14            1.9879    -0.5381    -0.4135 C.ar    
  15 C15            3.0391    -1.4125    -0.2313 C.ar    
  16 N16            2.9320    -2.4387     0.5910 N.ar    
  17 C17            1.8274    -2.6777     1.2724 C.ar    
  18 C18            0.7300    -1.8509     1.1549 C.ar    
  19 C19            1.7667    -3.8666     2.1964 C.3     
  20 C20           -4.3587     4.7429     0.0190 C.ar    
  21 C21            1.0461     2.0883    -2.2532 C.3     
  22 O22           -0.0731     2.7155    -2.8825 O.3     
  23 F23           -6.2895     5.9741    -0.5873 F       
  24 C24            2.3332     2.8001    -2.6747 C.3     
  25 C25           -7.8299     3.6560    -1.0096 C.3     
  26 F26           -8.3230     2.3528    -1.1352 F       
  27 F27           -8.5828     4.3496    -0.0561 F       
  28 F28           -7.9223     4.3103    -2.2427 F       
  29 H29           -2.0394    -1.0757     0.7727 H       
  30 H30           -4.3417     0.3379     0.4958 H       
  31 H31           -6.3205     1.4725    -0.5148 H       
  32 H32           -2.7068     3.4962     0.5507 H       
  33 H33            0.8010     3.2180    -0.4353 H       
  34 H34            1.7640     1.7320    -0.2536 H       
  35 H35            2.0824     0.2996    -1.0885 H       
  36 H36            3.9622    -1.2552    -0.7694 H       
  37 H37           -0.1707    -2.0525     1.7157 H       
  38 H38            2.1022    -3.5716     3.1907 H       
  39 H39            0.7410    -4.2313     2.2524 H       
  40 H40            2.4130    -4.6569     1.8145 H       
  41 H41           -3.8111     5.6618     0.1676 H       
  42 H42            1.0938     1.0421    -2.5556 H       
  43 H43           -0.1775     3.6503    -2.6582 H       
  44 H44            3.1869     2.3217    -2.1947 H       
  45 H45            2.4441     2.7395    -3.7574 H       
  46 H46            2.2856     3.8462    -2.3723 H       
@<TRIPOS>BOND
   1    1    2 1
   2    1   13 1
   3    1    5 1
   4    2    3 2
   5    2   12 1
   6    3    4 1
   7    3   29 1
   8    4    5 2
   9    4    6 1
  10    6    7 1
  11    6   30 1
  12    7    8 ar
  13    7   11 ar
  14    8    9 ar
  15    8   31 1
  16    9   10 ar
  17    9   25 1
  18   10   20 ar
  19   10   23 1
  20   11   20 ar
  21   11   32 1
  22   12   14 ar
  23   12   18 ar
  24   13   21 1
  25   13   33 1
  26   13   34 1
  27   14   15 ar
  28   14   35 1
  29   15   16 ar
  30   15   36 1
  31   16   17 ar
  32   17   18 ar
  33   17   19 1
  34   18   37 1
  35   19   38 1
  36   19   39 1
  37   19   40 1
  38   20   41 1
  39   21   22 1
  40   21   24 1
  41   21   42 1
  42   22   43 1
  43   24   44 1
  44   24   45 1
  45   24   46 1
  46   25   26 1
  47   25   27 1
  48   25   28 1

#	End of record

