#	Name: ASD02408261
#	Creating user name:	WinNT
#	Creation time:	15. 06. 2019 20:21

#	Modifying user name:	WinNT
#	Modification time:	15. 06. 2019 20:21

#	Program:	/corina/corina34_cracker 3.40 0067  02.08.2006

@<TRIPOS>MOLECULE
ASD02408261
  45   48    0    0    0
SMALL
NO_CHARGES


@<TRIPOS>ATOM
   1 C1             0.1998     1.8823     0.0703 C.2     
   2 C2             0.3587     0.5329    -0.0092 C.2     
   3 N3            -0.7146    -0.2866    -0.0956 N.pl3   
   4 N4            -1.9244     0.1365    -0.1081 N.2     
   5 C5            -2.2200     1.4186    -0.0369 C.2     
   6 C6            -1.1239     2.3937     0.0651 C.2     
   7 C7            -0.4926    -1.6651    -0.1757 C.ar    
   8 C8            -1.5638    -2.5478    -0.1122 C.ar    
   9 C9            -1.3410    -3.9081    -0.1921 C.ar    
  10 C10           -0.0533    -4.3924    -0.3347 C.ar    
  11 C11            1.0151    -3.5169    -0.3978 C.ar    
  12 C12            0.7988    -2.1547    -0.3247 C.ar    
  13 C13           -3.6244     1.8672    -0.0541 C.2     
  14 C14           -4.3105     2.4917     0.9731 C.2     
  15 N15           -5.5615     2.7269     0.5357 N.2     
  16 C16           -5.6863     2.2896    -0.6862 C.2     
  17 N17           -4.5156     1.7547    -1.0969 N.pl3   
  18 C18           -3.7683     2.8369     2.3075 C.ar    
  19 O19           -1.3435     3.5942     0.1342 O.2     
  20 C20           -4.1520     4.0225     2.9340 C.ar    
  21 C21           -2.8763     1.9748     2.9453 C.ar    
  22 C22           -2.3750     2.3017     4.1886 C.ar    
  23 C23           -2.7557     3.4815     4.8027 C.ar    
  24 C24           -3.6438     4.3383     4.1773 C.ar    
  25 O25            1.2736     2.7125     0.1574 O.3     
  26 C26            2.5661     2.1030     0.1614 C.3     
  27 C27           -2.5022    -4.8662    -0.1233 C.3     
  28 F28           -3.0566    -5.0194    -1.3987 F       
  29 F29           -2.0558    -6.1073     0.3433 F       
  30 F30           -3.4723    -4.3614     0.7492 F       
  31 H31            1.3530     0.1113    -0.0035 H       
  32 H32           -2.5694    -2.1703    -0.0001 H       
  33 H33            0.1182    -5.4569    -0.3966 H       
  34 H34            2.0193    -3.8984    -0.5088 H       
  35 H35            1.6337    -1.4713    -0.3743 H       
  36 H36           -6.5861     2.3496    -1.2804 H       
  37 H37           -4.3378     1.3590    -1.9645 H       
  38 H38           -4.8453     4.6922     2.4467 H       
  39 H39           -2.5789     1.0532     2.4672 H       
  40 H40           -1.6843     1.6351     4.6834 H       
  41 H41           -2.3612     3.7327     5.7762 H       
  42 H42           -3.9370     5.2581     4.6616 H       
  43 H43            2.6473     1.4288     1.0139 H       
  44 H44            2.7053     1.5401    -0.7616 H       
  45 H45            3.3318     2.8754     0.2348 H       
@<TRIPOS>BOND
   1    1    2 2
   2    1   25 1
   3    1    6 1
   4    2    3 1
   5    2   31 1
   6    3    4 1
   7    3    7 1
   8    4    5 2
   9    5    6 1
  10    5   13 1
  11    6   19 2
  12    7    8 ar
  13    7   12 ar
  14    8    9 ar
  15    8   32 1
  16    9   10 ar
  17    9   27 1
  18   10   11 ar
  19   10   33 1
  20   11   12 ar
  21   11   34 1
  22   12   35 1
  23   13   14 2
  24   13   17 1
  25   14   15 1
  26   14   18 1
  27   15   16 2
  28   16   17 1
  29   16   36 1
  30   17   37 1
  31   18   20 ar
  32   18   21 ar
  33   20   24 ar
  34   20   38 1
  35   21   22 ar
  36   21   39 1
  37   22   23 ar
  38   22   40 1
  39   23   24 ar
  40   23   41 1
  41   24   42 1
  42   25   26 1
  43   26   43 1
  44   26   44 1
  45   26   45 1
  46   27   28 1
  47   27   29 1
  48   27   30 1

#	End of record

