#	Name: ASD03240028
#	Creating user name:	WinNT
#	Creation time:	15. 06. 2019 20:34

#	Modifying user name:	WinNT
#	Modification time:	15. 06. 2019 20:34

#	Program:	/corina/corina34_cracker 3.40 0067  02.08.2006

@<TRIPOS>MOLECULE
ASD03240028
  95  101    0    0    0
SMALL
NO_CHARGES


@<TRIPOS>ATOM
   1 C1            -0.8947     0.7067    -2.6086 C.ar    
   2 C2            -1.0732    -0.6857    -2.4077 C.ar    
   3 N3             0.3019     1.1894    -2.9613 N.ar    
   4 C4             1.3234     0.3683    -3.1240 C.ar    
   5 C5             1.1389    -1.0674    -2.9168 C.ar    
   6 N6            -0.0472    -1.5299    -2.5684 N.ar    
   7 C7             2.2774    -1.9980    -3.0964 C.ar    
   8 C8             2.6495     0.8991    -3.5150 C.ar    
   9 C9             2.7400     1.9912    -4.3780 C.ar    
  10 C10            3.9785     2.4814    -4.7383 C.ar    
  11 C11            5.1290     1.8920    -4.2453 C.ar    
  12 C12            5.0458     0.8086    -3.3890 C.ar    
  13 C13            3.8131     0.3125    -3.0172 C.ar    
  14 C14            2.3964    -3.1241    -2.2824 C.ar    
  15 C15            3.4592    -3.9871    -2.4545 C.ar    
  16 C16            4.4056    -3.7371    -3.4321 C.ar    
  17 C17            4.2930    -2.6217    -4.2427 C.ar    
  18 C18            3.2315    -1.7544    -4.0840 C.ar    
  19 C19            5.5642    -4.6835    -3.6145 C.3     
  20 N20            5.1970    -5.7264    -4.5817 N.3     
  21 C21            6.3683    -6.5249    -4.9646 C.3     
  22 C22            5.9799    -7.5018    -6.0767 C.3     
  23 C23            4.8571    -8.4155    -5.5776 C.3     
  24 C24            3.6675    -7.5566    -5.1398 C.3     
  25 C25            4.1230    -6.5781    -4.0549 C.3     
  26 N26            4.4411    -9.3143    -6.6570 N.am    
  27 C27            4.4909   -10.7059    -6.6238 C.ar    
  28 C28            4.0027   -11.1567    -7.8518 C.ar    
  29 N29            3.6713   -10.0250    -8.5931 N.am    
  30 C30            3.9399    -8.9362    -7.8481 C.2     
  31 C31            4.9038   -11.6207    -5.6670 C.ar    
  32 C32            4.8304   -12.9739    -5.9330 C.ar    
  33 C33            4.3463   -13.4209    -7.1505 C.ar    
  34 C34            3.9327   -12.5173    -8.1096 C.ar    
  35 O35            3.7645    -7.7849    -8.2010 O.2     
  36 C36           -2.3384    -1.1723    -2.0373 C.ar    
  37 C37           -3.3908    -0.2875    -1.8741 C.ar    
  38 C38           -3.2007     1.0909    -2.0763 C.ar    
  39 C39           -1.9847     1.5801    -2.4285 C.ar    
  40 C40           -4.7233    -0.7955    -1.4850 C.2     
  41 O41           -4.8923    -1.9864    -1.3095 O.2     
  42 N42           -5.7508     0.0618    -1.3249 N.am    
  43 C43           -7.0715    -0.4416    -0.9393 C.3     
  44 C44           -8.0504     0.7288    -0.8263 C.3     
  45 C45           -9.4297     0.2030    -0.4236 C.3     
  46 N46           -9.3062    -0.6171     0.7889 N.3     
  47 C47           -7.5499     1.7118     0.2338 C.3     
  48 C48           -8.1507     1.4419    -2.1763 C.3     
  49 C49           -9.1982     0.2268     1.9865 C.3     
  50 C50          -10.4299    -1.5560     0.9061 C.3     
  51 H51            1.8426     2.4519    -4.7638 H       
  52 H52            4.0498     3.3267    -5.4067 H       
  53 H53            6.0961     2.2791    -4.5305 H       
  54 H54            5.9475     0.3525    -3.0078 H       
  55 H55            3.7494    -0.5332    -2.3487 H       
  56 H56            1.6584    -3.3201    -1.5186 H       
  57 H57            3.5526    -4.8594    -1.8245 H       
  58 H58            5.0349    -2.4318    -5.0042 H       
  59 H59            3.1447    -0.8839    -4.7174 H       
  60 H60            6.4285    -4.1324    -3.9850 H       
  61 H61            5.8102    -5.1451    -2.6582 H       
  62 H62            7.1578    -5.8635    -5.3216 H       
  63 H63            6.7260    -7.0830    -4.0994 H       
  64 H64            5.6352    -6.9439    -6.9473 H       
  65 H65            6.8457    -8.1051    -6.3499 H       
  66 H66            5.2140    -9.0021    -4.7311 H       
  67 H67            3.2864    -6.9995    -5.9956 H       
  68 H68            2.8811    -8.1990    -4.7436 H       
  69 H69            4.4911    -7.1360    -3.1939 H       
  70 H70            3.2816    -5.9553    -3.7511 H       
  71 H71            3.3057   -10.0220    -9.4916 H       
  72 H72            5.2823   -11.2758    -4.7162 H       
  73 H73            5.1523   -13.6866    -5.1880 H       
  74 H74            4.2919   -14.4807    -7.3512 H       
  75 H75            3.5553   -12.8697    -9.0582 H       
  76 H76           -2.4891    -2.2303    -1.8812 H       
  77 H77           -4.0311     1.7689    -1.9457 H       
  78 H78           -1.8548     2.6415    -2.5800 H       
  79 H79           -5.6160     1.0121    -1.4649 H       
  80 H80           -7.4281    -1.1420    -1.6945 H       
  81 H81           -7.0001    -0.9497     0.0225 H       
  82 H82          -10.0958     1.0432    -0.2277 H       
  83 H83           -9.8377    -0.4033    -1.2323 H       
  84 H84           -6.7953     2.3653    -0.2040 H       
  85 H85           -8.3846     2.3121     0.5957 H       
  86 H86           -7.1131     1.1584     1.0651 H       
  87 H87           -8.5073     0.7415    -2.9315 H       
  88 H88           -8.8481     2.2757    -2.0958 H       
  89 H89           -7.1681     1.8164    -2.4632 H       
  90 H90           -9.7926     1.1301     1.8492 H       
  91 H91           -9.5669    -0.3226     2.8526 H       
  92 H92           -8.1549     0.4992     2.1461 H       
  93 H93          -10.3949    -2.2691     0.0825 H       
  94 H94          -10.3591    -2.0909     1.8532 H       
  95 H95          -11.3694    -1.0046     0.8696 H       
@<TRIPOS>BOND
   1    1    2 ar
   2    1    3 ar
   3    1   39 ar
   4    2   36 ar
   5    2    6 ar
   6    3    4 ar
   7    4    5 ar
   8    4    8 1
   9    5    6 ar
  10    5    7 1
  11    7   14 ar
  12    7   18 ar
  13    8    9 ar
  14    8   13 ar
  15    9   10 ar
  16    9   51 1
  17   10   11 ar
  18   10   52 1
  19   11   12 ar
  20   11   53 1
  21   12   13 ar
  22   12   54 1
  23   13   55 1
  24   14   15 ar
  25   14   56 1
  26   15   16 ar
  27   15   57 1
  28   16   17 ar
  29   16   19 1
  30   17   18 ar
  31   17   58 1
  32   18   59 1
  33   19   20 1
  34   19   60 1
  35   19   61 1
  36   20   21 1
  37   20   25 1
  38   21   22 1
  39   21   62 1
  40   21   63 1
  41   22   23 1
  42   22   64 1
  43   22   65 1
  44   23   24 1
  45   23   26 1
  46   23   66 1
  47   24   25 1
  48   24   67 1
  49   24   68 1
  50   25   69 1
  51   25   70 1
  52   26   27 1
  53   26   30 am
  54   27   28 ar
  55   27   31 ar
  56   28   29 1
  57   28   34 ar
  58   29   30 am
  59   29   71 1
  60   30   35 2
  61   31   32 ar
  62   31   72 1
  63   32   33 ar
  64   32   73 1
  65   33   34 ar
  66   33   74 1
  67   34   75 1
  68   36   37 ar
  69   36   76 1
  70   37   38 ar
  71   37   40 1
  72   38   39 ar
  73   38   77 1
  74   39   78 1
  75   40   41 2
  76   40   42 am
  77   42   43 1
  78   42   79 1
  79   43   44 1
  80   43   80 1
  81   43   81 1
  82   44   45 1
  83   44   47 1
  84   44   48 1
  85   45   46 1
  86   45   82 1
  87   45   83 1
  88   46   49 1
  89   46   50 1
  90   47   84 1
  91   47   85 1
  92   47   86 1
  93   48   87 1
  94   48   88 1
  95   48   89 1
  96   49   90 1
  97   49   91 1
  98   49   92 1
  99   50   93 1
 100   50   94 1
 101   50   95 1

#	End of record

