#	Name: ASD01882205
#	Creating user name:	WinNT
#	Creation time:	15. 06. 2019 19:44

#	Modifying user name:	WinNT
#	Modification time:	15. 06. 2019 19:44

#	Program:	/corina/corina34_cracker 3.40 0067  02.08.2006

@<TRIPOS>MOLECULE
ASD01882205
  29   30    0    0    0
SMALL
NO_CHARGES


@<TRIPOS>ATOM
   1 C1            -0.0184     1.5085     0.0103 C.2     
   2 C2             0.0021    -0.0041     0.0020 C.3     
   3 C3             0.9268    -0.4849     1.1252 C.3     
   4 C4             2.3021     0.1650     0.9644 C.3     
   5 C5             2.1811     1.6813     1.1249 C.3     
   6 C6             1.3035     2.2437     0.0017 C.3     
   7 O7            -1.0635     2.1135     0.0186 O.2     
   8 N8             3.2118    -0.3616     1.9849 N.pl3   
   9 C9             4.5918    -0.3547     1.7617 C.ar    
  10 C10            5.4564    -0.8540     2.7291 C.ar    
  11 C11            6.8198    -0.8457     2.5052 C.ar    
  12 C12            7.3243    -0.3405     1.3198 C.ar    
  13 C13            6.4661     0.1573     0.3559 C.ar    
  14 C14            5.1014     0.1456     0.5711 C.ar    
  15 Cl15           4.8238    -1.4868     4.2168 Cl      
  16 Br16           9.1909    -0.3302     1.0172 Br      
  17 H17           -1.0055    -0.3848     0.1691 H       
  18 H18            0.3764    -0.3599    -0.9579 H       
  19 H19            0.5031    -0.2052     2.0898 H       
  20 H20            1.0286    -1.5689     1.0733 H       
  21 H21            2.6977    -0.0642    -0.0251 H       
  22 H22            1.7276     1.9098     2.0894 H       
  23 H23            3.1719     2.1326     1.0727 H       
  24 H24            1.7983     2.0960    -0.9583 H       
  25 H25            1.1321     3.3071     0.1685 H       
  26 H26            2.8566    -0.7150     2.8155 H       
  27 H27            7.4923    -1.2334     3.2561 H       
  28 H28            6.8630     0.5515    -0.5679 H       
  29 H29            4.4319     0.5300    -0.1841 H       
@<TRIPOS>BOND
   1    1    2 1
   2    1    6 1
   3    1    7 2
   4    2    3 1
   5    2   17 1
   6    2   18 1
   7    3    4 1
   8    3   19 1
   9    3   20 1
  10    4    5 1
  11    4    8 1
  12    4   21 1
  13    5    6 1
  14    5   22 1
  15    5   23 1
  16    6   24 1
  17    6   25 1
  18    8    9 1
  19    8   26 1
  20    9   10 ar
  21    9   14 ar
  22   10   11 ar
  23   10   15 1
  24   11   12 ar
  25   11   27 1
  26   12   13 ar
  27   12   16 1
  28   13   14 ar
  29   13   28 1
  30   14   29 1

#	End of record

