#	Name: ASD01120030
#	Creating user name:	WinNT
#	Creation time:	15. 06. 2019 18:58

#	Modifying user name:	WinNT
#	Modification time:	15. 06. 2019 18:58

#	Program:	/corina/corina34_cracker 3.40 0067  02.08.2006

@<TRIPOS>MOLECULE
ASD01120030
  48   51    0    0    0
SMALL
NO_CHARGES


@<TRIPOS>ATOM
   1 C1            -0.0902     1.3502     0.6485 C.ar    
   2 C2            -0.0521    -0.0389     0.4645 C.ar    
   3 C3            -1.1844    -0.7311     0.0959 C.ar    
   4 C4            -2.3852    -0.0372    -0.0963 C.ar    
   5 C5            -2.4161     1.3670     0.0916 C.ar    
   6 C6            -1.2523     2.0462     0.4713 C.ar    
   7 N7            -3.5160    -0.6646    -0.4559 N.ar    
   8 C8            -4.6260     0.0126    -0.6291 C.ar    
   9 N9            -4.7023     1.3237    -0.4651 N.ar    
  10 C10           -3.6441     2.0408    -0.1105 C.ar    
  11 N11           -3.7382     3.4079     0.0570 N.pl3   
  12 C12           -4.9822     4.0391    -0.0332 C.ar    
  13 O13            1.0407     2.0115     1.0129 O.3     
  14 O14            1.1145    -0.7096     0.6513 O.3     
  15 C15           -6.1281     3.3762     0.3800 C.ar    
  16 C16           -7.3650     4.0091     0.2881 C.ar    
  17 C17           -7.4446     5.3051    -0.2184 C.ar    
  18 C18           -6.2991     5.9586    -0.6278 C.ar    
  19 C19           -5.0705     5.3337    -0.5318 C.ar    
  20 C20           -8.5952     3.3054     0.7280 C.2     
  21 C21            0.9380     3.4264     1.1849 C.3     
  22 C22            2.3006     3.9910     1.5916 C.3     
  23 C23            1.0892    -2.1240     0.4485 C.3     
  24 C24            2.4834    -2.7006     0.7030 C.3     
  25 N25           -8.6640     2.0544     1.2359 N.2     
  26 C26           -9.9075     1.7825     1.5052 C.2     
  27 O27          -10.6665     2.8382     1.1823 O.3     
  28 C28           -9.8566     3.8002     0.7002 C.2     
  29 H29           -1.1463    -1.8013    -0.0441 H       
  30 H30           -1.2712     3.1163     0.6156 H       
  31 H31           -5.5175    -0.5237    -0.9188 H       
  32 H32           -2.9411     3.9305     0.2373 H       
  33 H33           -6.0614     2.3719     0.7715 H       
  34 H34           -8.4027     5.7982    -0.2911 H       
  35 H35           -6.3633     6.9627    -1.0203 H       
  36 H36           -4.1775     5.8493    -0.8530 H       
  37 H37            0.6199     3.8842     0.2482 H       
  38 H38            0.2069     3.6457     1.9631 H       
  39 H39            2.6186     3.5333     2.5283 H       
  40 H40            3.0317     3.7718     0.8135 H       
  41 H41            2.2222     5.0702     1.7228 H       
  42 H42            0.3771    -2.5772     1.1382 H       
  43 H43            0.7889    -2.3387    -0.5770 H       
  44 H44            2.7837    -2.4858     1.7286 H       
  45 H45            2.4641    -3.7794     0.5484 H       
  46 H46            3.1955    -2.2473     0.0134 H       
  47 H47          -10.2699     0.8543     1.9220 H       
  48 H48          -10.1562     4.7773     0.3510 H       
@<TRIPOS>BOND
   1    1    2 ar
   2    1   13 1
   3    1    6 ar
   4    2    3 ar
   5    2   14 1
   6    3    4 ar
   7    3   29 1
   8    4    5 ar
   9    4    7 ar
  10    5    6 ar
  11    5   10 ar
  12    6   30 1
  13    7    8 ar
  14    8    9 ar
  15    8   31 1
  16    9   10 ar
  17   10   11 1
  18   11   12 1
  19   11   32 1
  20   12   15 ar
  21   12   19 ar
  22   13   21 1
  23   14   23 1
  24   15   16 ar
  25   15   33 1
  26   16   17 ar
  27   16   20 1
  28   17   18 ar
  29   17   34 1
  30   18   19 ar
  31   18   35 1
  32   19   36 1
  33   20   25 1
  34   20   28 2
  35   21   22 1
  36   21   37 1
  37   21   38 1
  38   22   39 1
  39   22   40 1
  40   22   41 1
  41   23   24 1
  42   23   42 1
  43   23   43 1
  44   24   44 1
  45   24   45 1
  46   24   46 1
  47   25   26 2
  48   26   27 1
  49   26   47 1
  50   27   28 1
  51   28   48 1

#	End of record

