#	Name: ASD03180025
#	Creating user name:	WinNT
#	Creation time:	15. 06. 2019 20:33

#	Modifying user name:	WinNT
#	Modification time:	15. 06. 2019 20:33

#	Program:	/corina/corina34_cracker 3.40 0067  02.08.2006

@<TRIPOS>MOLECULE
ASD03180025
  51   53    0    0    0
SMALL
NO_CHARGES


@<TRIPOS>ATOM
   1 C1             7.4444     3.6329     1.7844 C.ar    
   2 C2             7.2032     4.9726     2.0317 C.ar    
   3 C3             5.9940     5.5363     1.6655 C.ar    
   4 C4             5.0277     4.7609     1.0529 C.ar    
   5 C5             5.2692     3.4224     0.8061 C.ar    
   6 C6             6.4773     2.8585     1.1718 C.ar    
   7 S7             4.0366     2.4343     0.0256 S.o2    
   8 O8             2.7841     3.0131     0.3652 O.2     
   9 N9             4.2143     2.6299    -1.6092 N.am    
  10 O10            4.3694     1.0817     0.3064 O.2     
  11 C11            3.4091     3.6266    -2.3194 C.3     
  12 C12            5.1766     1.8062    -2.3451 C.3     
  13 C13            4.4582     0.6480    -2.9882 C.ar    
  14 C14            4.1918     4.9084    -2.4441 C.2     
  15 N15            3.6470     5.9729    -3.0659 N.am    
  16 C16            4.4080     7.1293    -3.2692 C.ar    
  17 O17            5.3119     4.9821    -1.9849 O.2     
  18 C18            4.0076     0.7514    -4.2909 C.ar    
  19 C19            3.3486    -0.3110    -4.8808 C.ar    
  20 C20            3.1405    -1.4769    -4.1680 C.ar    
  21 C21            3.5918    -1.5807    -2.8655 C.ar    
  22 C22            4.2546    -0.5199    -2.2771 C.ar    
  23 C23            4.2320     7.8840    -4.4223 C.ar    
  24 C24            4.9832     9.0255    -4.6230 C.ar    
  25 C25            5.9114     9.4201    -3.6780 C.ar    
  26 C26            6.0918     8.6700    -2.5246 C.ar    
  27 C27            5.3354     7.5270    -2.3168 C.ar    
  28 O28            7.0052     9.0589    -1.5966 O.3     
  29 C29            7.7445    10.2500    -1.8734 C.3     
  30 Cl30           8.4172     5.9458     2.8017 Cl      
  31 H31            8.3899     3.1934     2.0660 H       
  32 H32            5.8050     6.5820     1.8586 H       
  33 H33            4.0836     5.2008     0.7673 H       
  34 H34            6.6655     1.8127     0.9787 H       
  35 H35            3.1626     3.2533    -3.3134 H       
  36 H36            2.4904     3.8145    -1.7637 H       
  37 H37            5.6564     2.4093    -3.1160 H       
  38 H38            5.9324     1.4280    -1.6568 H       
  39 H39            2.7275     5.9373    -3.3725 H       
  40 H40            4.1702     1.6624    -4.8478 H       
  41 H41            2.9960    -0.2299    -5.8984 H       
  42 H42            2.6249    -2.3067    -4.6285 H       
  43 H43            3.4289    -2.4915    -2.3085 H       
  44 H44            4.6105    -0.6022    -1.2608 H       
  45 H45            3.5075     7.5776    -5.1624 H       
  46 H46            4.8453     9.6107    -5.5202 H       
  47 H47            6.4974    10.3132    -3.8377 H       
  48 H48            5.4710     6.9446    -1.4175 H       
  49 H49            7.0564    11.0890    -1.9766 H       
  50 H50            8.4368    10.4465    -1.0547 H       
  51 H51            8.3043    10.1231    -2.8000 H       
@<TRIPOS>BOND
   1    1    2 ar
   2    1    6 ar
   3    1   31 1
   4    2    3 ar
   5    2   30 1
   6    3    4 ar
   7    3   32 1
   8    4    5 ar
   9    4   33 1
  10    5    6 ar
  11    5    7 1
  12    6   34 1
  13    7    8 2
  14    7    9 am
  15    7   10 2
  16    9   11 1
  17    9   12 1
  18   11   14 1
  19   11   35 1
  20   11   36 1
  21   12   13 1
  22   12   37 1
  23   12   38 1
  24   13   18 ar
  25   13   22 ar
  26   14   15 am
  27   14   17 2
  28   15   16 1
  29   15   39 1
  30   16   23 ar
  31   16   27 ar
  32   18   19 ar
  33   18   40 1
  34   19   20 ar
  35   19   41 1
  36   20   21 ar
  37   20   42 1
  38   21   22 ar
  39   21   43 1
  40   22   44 1
  41   23   24 ar
  42   23   45 1
  43   24   25 ar
  44   24   46 1
  45   25   26 ar
  46   25   47 1
  47   26   27 ar
  48   26   28 1
  49   27   48 1
  50   28   29 1
  51   29   49 1
  52   29   50 1
  53   29   51 1

#	End of record

