#	Name: ASD01811400
#	Creating user name:	WinNT
#	Creation time:	15. 06. 2019 19:26

#	Modifying user name:	WinNT
#	Modification time:	15. 06. 2019 19:26

#	Program:	/corina/corina34_cracker 3.40 0067  02.08.2006

@<TRIPOS>MOLECULE
ASD01811400
  36   36    0    0    0
SMALL
NO_CHARGES


@<TRIPOS>ATOM
   1 N1            -0.0169     1.3964     0.0097 N.pl3   
   2 N2             0.0021    -0.0041     0.0020 N.2     
   3 C3             1.2603    -0.4003    -0.0121 C.2     
   4 C4             2.0802     0.7475    -0.0138 C.2     
   5 C5             1.2696     1.8362    -0.0002 C.2     
   6 C6             1.7283    -1.8000    -0.0234 C.2     
   7 O7             2.9187    -2.0424    -0.0357 O.2     
   8 O8             0.8354    -2.8089    -0.0200 O.3     
   9 C9            -1.2144     2.2403     0.0202 C.3     
  10 N10            1.6829     3.1690     0.0026 N.am    
  11 C11            2.9973     3.4669    -0.0083 C.2     
  12 O12            3.8229     2.5744    -0.0206 O.2     
  13 N13            3.3965     4.7542    -0.0056 N.am    
  14 C14            4.8252     5.0781    -0.0174 C.3     
  15 C15            5.0037     6.5977    -0.0115 C.3     
  16 C16            4.4701     7.1687     1.3038 C.3     
  17 C17            6.4892     6.9372    -0.1495 C.3     
  18 C18            1.3673    -4.1600    -0.0316 C.3     
  19 H19            3.1601     0.7582    -0.0235 H       
  20 H20           -1.5060     2.4444     1.0505 H       
  21 H21           -1.0013     3.1797    -0.4900 H       
  22 H22           -2.0267     1.7247    -0.4920 H       
  23 H23            1.0243     3.8810     0.0124 H       
  24 H24            2.7378     5.4662     0.0042 H       
  25 H25            5.3015     4.6529     0.8660 H       
  26 H26            5.2847     4.6618    -0.9139 H       
  27 H27            4.4528     7.0315    -0.8460 H       
  28 H28            5.0210     6.7349     2.1383 H       
  29 H29            4.5973     8.2512     1.3081 H       
  30 H30            3.4118     6.9268     1.4022 H       
  31 H31            6.8693     6.5304    -1.0866 H       
  32 H32            6.6163     8.0197    -0.1453 H       
  33 H33            7.0401     6.5034     0.6850 H       
  34 H34            1.9702    -4.3054    -0.9280 H       
  35 H35            1.9868    -4.3141     0.8519 H       
  36 H36            0.5442    -4.8745    -0.0274 H       
@<TRIPOS>BOND
   1    1    2 1
   2    1    5 1
   3    1    9 1
   4    2    3 2
   5    3    4 1
   6    3    6 1
   7    4    5 2
   8    4   19 1
   9    5   10 1
  10    6    7 2
  11    6    8 1
  12    8   18 1
  13    9   20 1
  14    9   21 1
  15    9   22 1
  16   10   11 am
  17   10   23 1
  18   11   12 2
  19   11   13 am
  20   13   14 1
  21   13   24 1
  22   14   15 1
  23   14   25 1
  24   14   26 1
  25   15   16 1
  26   15   17 1
  27   15   27 1
  28   16   28 1
  29   16   29 1
  30   16   30 1
  31   17   31 1
  32   17   32 1
  33   17   33 1
  34   18   34 1
  35   18   35 1
  36   18   36 1

#	End of record

