#	Name: ASD01910160
#	Creating user name:	WinNT
#	Creation time:	15. 06. 2019 19:55

#	Modifying user name:	WinNT
#	Modification time:	15. 06. 2019 19:55

#	Program:	/corina/corina34_cracker 3.40 0067  02.08.2006

@<TRIPOS>MOLECULE
ASD01910160
  47   49    0    0    0
SMALL
NO_CHARGES


@<TRIPOS>ATOM
   1 C1             0.0479     1.2916     0.1372 C.ar    
   2 C2            -1.0356     1.7128    -0.6128 C.ar    
   3 C3            -0.9409     2.8465    -1.4007 C.ar    
   4 C4             0.2361     3.5643    -1.4430 C.ar    
   5 C5             1.3334     3.1448    -0.6886 C.ar    
   6 C6             1.2311     2.0005     0.1039 C.ar    
   7 C7             2.5981     3.9089    -0.7295 C.2     
   8 N8             3.6555     3.5013    -0.0000 N.am    
   9 C9             4.8801     4.1673    -0.1112 C.ar    
  10 C10            4.9086     5.5415    -0.3005 C.ar    
  11 C11            6.1260     6.1987    -0.4104 C.ar    
  12 C12            7.3117     5.4792    -0.3307 C.ar    
  13 C13            7.2799     4.1107    -0.1425 C.ar    
  14 C14            6.0699     3.4543    -0.0265 C.ar    
  15 N15            6.1591     7.5836    -0.6018 N.am    
  16 C16            7.1347     8.3194    -0.0332 C.2     
  17 C17            7.1126     9.7897    -0.1496 C.ar    
  18 C18            6.0825    10.4236    -0.8482 C.ar    
  19 C19            6.0675    11.7979    -0.9529 C.ar    
  20 C20            7.0699    12.5542    -0.3686 C.ar    
  21 C21            8.0943    11.9403     0.3250 C.ar    
  22 C22            8.1222    10.5592     0.4453 C.ar    
  23 O23            9.1278     9.9548     1.1262 O.3     
  24 C24           10.1273    10.8028     1.6954 C.3     
  25 O25            2.6843     4.9049    -1.4210 O.2     
  26 O26            8.0331     7.7711     0.5758 O.2     
  27 C27           -2.1263     3.2975    -2.2147 C.3     
  28 H28           -0.0340     0.4086     0.7535 H       
  29 H29           -1.9594     1.1541    -0.5835 H       
  30 H30            0.3088     4.4487    -2.0586 H       
  31 H31            2.0762     1.6709     0.6901 H       
  32 H32            3.5672     2.7460     0.6021 H       
  33 H33            3.9854     6.0985    -0.3626 H       
  34 H34            8.2594     5.9900    -0.4161 H       
  35 H35            8.2031     3.5536    -0.0812 H       
  36 H36            6.0484     2.3847     0.1208 H       
  37 H37            5.4799     8.0147    -1.1437 H       
  38 H38            5.2992     9.8378    -1.3059 H       
  39 H39            5.2706    12.2871    -1.4932 H       
  40 H40            7.0506    13.6305    -0.4562 H       
  41 H41            8.8725    12.5370     0.7775 H       
  42 H42           10.6118    11.3750     0.9043 H       
  43 H43            9.6622    11.4865     2.4056 H       
  44 H44           10.8701    10.1938     2.2106 H       
  45 H45           -2.7347     3.9811    -1.6226 H       
  46 H46           -1.7775     3.8067    -3.1131 H       
  47 H47           -2.7240     2.4308    -2.4972 H       
@<TRIPOS>BOND
   1    1    2 ar
   2    1    6 ar
   3    1   28 1
   4    2    3 ar
   5    2   29 1
   6    3    4 ar
   7    3   27 1
   8    4    5 ar
   9    4   30 1
  10    5    6 ar
  11    5    7 1
  12    6   31 1
  13    7    8 am
  14    7   25 2
  15    8    9 1
  16    8   32 1
  17    9   10 ar
  18    9   14 ar
  19   10   11 ar
  20   10   33 1
  21   11   12 ar
  22   11   15 1
  23   12   13 ar
  24   12   34 1
  25   13   14 ar
  26   13   35 1
  27   14   36 1
  28   15   16 am
  29   15   37 1
  30   16   17 1
  31   16   26 2
  32   17   18 ar
  33   17   22 ar
  34   18   19 ar
  35   18   38 1
  36   19   20 ar
  37   19   39 1
  38   20   21 ar
  39   20   40 1
  40   21   22 ar
  41   21   41 1
  42   22   23 1
  43   23   24 1
  44   24   42 1
  45   24   43 1
  46   24   44 1
  47   27   45 1
  48   27   46 1
  49   27   47 1

#	End of record

