#	Name: ASD02030479
#	Creating user name:	WinNT
#	Creation time:	15. 06. 2019 20:15

#	Modifying user name:	WinNT
#	Modification time:	15. 06. 2019 20:15

#	Program:	/corina/corina34_cracker 3.40 0067  02.08.2006

@<TRIPOS>MOLECULE
ASD02030479
  27   28    0    0    0
SMALL
NO_CHARGES


@<TRIPOS>ATOM
   1 C1            -0.0169     1.3947     0.0097 C.ar    
   2 C2             0.0021    -0.0041     0.0020 C.ar    
   3 C3             1.2237    -0.6720    -0.0385 C.ar    
   4 C4             2.4222     0.0585    -0.0768 C.ar    
   5 C5             2.4051     1.4226    -0.0545 C.ar    
   6 C6             1.1973     2.1108     0.0020 C.ar    
   7 O7             1.1905     3.4627     0.0739 O.3     
   8 C8             0.0971     4.0858    -0.4196 C.2     
   9 C9            -1.2198     3.4710    -0.1697 C.2     
  10 C10           -1.2507     2.0967     0.0312 C.2     
  11 O11            0.1964     5.1213    -1.0506 O.2     
  12 C12           -2.4487     4.2790    -0.1333 C.2     
  13 O13           -3.5208     3.7455     0.0748 O.2     
  14 O14           -2.3857     5.6109    -0.3307 O.3     
  15 C15            1.2583    -2.1424    -0.0406 C.2     
  16 C16            2.4423    -2.7897    -0.0798 C.2     
  17 C17            2.4766    -4.2507    -0.0819 C.2     
  18 O18            1.4384    -4.8835    -0.0483 O.2     
  19 O19            3.6600    -4.8976    -0.1211 O.3     
  20 H20           -0.9227    -0.5614     0.0276 H       
  21 H21            3.3661    -0.4642    -0.1240 H       
  22 H22            3.3349     1.9716    -0.0807 H       
  23 H23           -2.1836     1.5787     0.1976 H       
  24 H24           -3.2195     6.0996    -0.2975 H       
  25 H25            0.3364    -2.7042    -0.0107 H       
  26 H26            3.3642    -2.2278    -0.1096 H       
  27 H27            3.5815    -5.8614    -0.1191 H       
@<TRIPOS>BOND
   1    1    2 ar
   2    1    6 ar
   3    1   10 1
   4    2    3 ar
   5    2   20 1
   6    3    4 ar
   7    3   15 1
   8    4    5 ar
   9    4   21 1
  10    5    6 ar
  11    5   22 1
  12    6    7 1
  13    7    8 1
  14    8    9 1
  15    8   11 2
  16    9   10 2
  17    9   12 1
  18   10   23 1
  19   12   13 2
  20   12   14 1
  21   14   24 1
  22   15   16 2
  23   15   25 1
  24   16   17 1
  25   16   26 1
  26   17   18 2
  27   17   19 1
  28   19   27 1

#	End of record

