#	Name: ASD03930091
#	Creating user name:	WinNT
#	Creation time:	15. 06. 2019 20:47

#	Modifying user name:	WinNT
#	Modification time:	15. 06. 2019 20:47

#	Program:	/corina/corina34_cracker 3.40 0067  02.08.2006

@<TRIPOS>MOLECULE
ASD03930091
  32   34    0    0    0
SMALL
NO_CHARGES


@<TRIPOS>ATOM
   1 C1             0.4483     1.3199    -0.7945 C.ar    
   2 C2             0.4612    -0.0541    -0.6964 C.ar    
   3 C3             1.1969    -0.6765     0.3034 C.ar    
   4 C4             1.9273     0.0890     1.2132 C.ar    
   5 C5             1.9188     1.4670     1.1191 C.ar    
   6 C6             1.1774     2.0920     0.1133 C.ar    
   7 O7             1.3687    -1.9946     0.6078 O.3     
   8 C8             2.5329    -2.0465     1.4532 C.3     
   9 O9             2.5554    -0.7531     2.0853 O.3     
  10 C10           -1.2760     3.4889    -0.1528 C.3     
  11 N11           -0.0064     4.2244    -0.0774 N.am    
  12 C12           -0.0386     5.6932    -0.0975 C.3     
  13 C13           -0.9853     6.1808     1.0037 C.3     
  14 C14           -2.3537     5.5196     0.8241 C.3     
  15 C15           -2.2089     4.0012     0.9491 C.3     
  16 C16            1.1655     3.5644     0.0091 C.2     
  17 O17            2.2130     4.1817     0.0014 O.2     
  18 H18           -0.1218     1.8001    -1.5760 H       
  19 H19           -0.1030    -0.6492    -1.3992 H       
  20 H20            2.4837     2.0606     1.8227 H       
  21 H21            2.4300    -2.8352     2.1985 H       
  22 H22            3.4327    -2.1969     0.8568 H       
  23 H23           -1.7363     3.6535    -1.1270 H       
  24 H24           -1.0907     2.4244    -0.0091 H       
  25 H25            0.9632     6.0832     0.0827 H       
  26 H26           -0.3980     6.0375    -1.0673 H       
  27 H27           -0.5774     5.9139     1.9786 H       
  28 H28           -1.0929     7.2635     0.9379 H       
  29 H29           -3.0365     5.8836     1.5919 H       
  30 H30           -2.7500     5.7668    -0.1608 H       
  31 H31           -3.1874     3.5325     0.8443 H       
  32 H32           -1.7894     3.7548     1.9245 H       
@<TRIPOS>BOND
   1    1    2 ar
   2    1    6 ar
   3    1   18 1
   4    2    3 ar
   5    2   19 1
   6    3    4 ar
   7    3    7 1
   8    4    5 ar
   9    4    9 1
  10    5    6 ar
  11    5   20 1
  12    6   16 1
  13    7    8 1
  14    8    9 1
  15    8   21 1
  16    8   22 1
  17   10   11 1
  18   10   15 1
  19   10   23 1
  20   10   24 1
  21   11   12 1
  22   11   16 am
  23   12   13 1
  24   12   25 1
  25   12   26 1
  26   13   14 1
  27   13   27 1
  28   13   28 1
  29   14   15 1
  30   14   29 1
  31   14   30 1
  32   15   31 1
  33   15   32 1
  34   16   17 2

#	End of record

