#	Name: ASD03082058
#	Creating user name:	WinNT
#	Creation time:	15. 06. 2019 20:27

#	Modifying user name:	WinNT
#	Modification time:	15. 06. 2019 20:27

#	Program:	/corina/corina34_cracker 3.40 0067  02.08.2006

@<TRIPOS>MOLECULE
ASD03082058
  66   70    0    0    0
SMALL
NO_CHARGES


@<TRIPOS>ATOM
   1 C1            -0.0187     1.5261     0.0104 C.3     
   2 C2             0.0021    -0.0041     0.0020 C.3     
   3 N3             0.7064    -0.4787    -1.1959 N.3     
   4 C4             2.1034    -0.0262    -1.2048 C.3     
   5 C5             2.1454     1.5033    -1.2324 C.3     
   6 C6             1.4196     2.0513    -0.0005 C.3     
   7 C7             0.6260    -1.9412    -1.3090 C.3     
   8 C8            -0.8267    -2.3547    -1.5531 C.3     
   9 C9             3.6009     1.9747    -1.2194 C.3     
  10 O10            3.6433     3.4188    -1.3648 O.3     
  11 C11            4.8602     3.9974    -1.3728 C.2     
  12 O12            5.8586     3.3139    -1.2613 O.2     
  13 C13            4.9803     5.4598    -1.5168 C.ar    
  14 C14            3.8353     6.2495    -1.6452 C.ar    
  15 C15            3.9544     7.6162    -1.7795 C.ar    
  16 C16            5.2049     8.2116    -1.7879 C.ar    
  17 C17            6.3457     7.4434    -1.6618 C.ar    
  18 C18            6.2449     6.0671    -1.5199 C.ar    
  19 N19            7.3972     5.2888    -1.3923 N.am    
  20 C20            7.9511     5.0031    -0.2074 C.2     
  21 C21            9.1788     4.1460    -0.4255 C.3     
  22 C22            9.2391     3.9841    -1.9580 C.3     
  23 C23            8.0359     4.7621    -2.4445 C.2     
  24 O24            7.5351     5.3729     0.8695 O.2     
  25 O25            7.7065     4.8936    -3.6036 O.2     
  26 C26           10.5334     4.5828    -2.5122 C.3     
  27 C27           -0.9091    -3.8550    -1.6692 C.2     
  28 C28           -0.8879    -4.5704    -2.8048 C.2     
  29 N29           -0.9832    -5.9048    -2.5173 N.pl3   
  30 C30           -1.0702    -6.0850    -1.1551 C.ar    
  31 C31           -1.0213    -4.8096    -0.5637 C.ar    
  32 C32           -1.1819    -7.2091    -0.3429 C.ar    
  33 C33           -1.2494    -7.0607     1.0249 C.ar    
  34 C34           -1.2070    -5.7994     1.6034 C.ar    
  35 C35           -1.0901    -4.6825     0.8251 C.ar    
  36 H36           -0.5449     1.8878    -0.8730 H       
  37 H37           -0.5279     1.8782     0.9076 H       
  38 H38            0.5163    -0.3652     0.8927 H       
  39 H39           -1.0206    -0.3811    -0.0047 H       
  40 H40            2.6078    -0.3873    -0.3085 H       
  41 H41            2.6069    -0.4194    -2.0879 H       
  42 H42            1.6532     1.8646    -2.1353 H       
  43 H43            1.4094     3.1406    -0.0383 H       
  44 H44            1.9345     1.7220     0.9021 H       
  45 H45            1.2439    -2.2756    -2.1424 H       
  46 H46            0.9834    -2.3972    -0.3858 H       
  47 H47           -1.4446    -2.0203    -0.7198 H       
  48 H48           -1.1841    -1.8987    -2.4764 H       
  49 H49            4.0664     1.6907    -0.2756 H       
  50 H50            4.1405     1.5104    -2.0449 H       
  51 H51            2.8580     5.7898    -1.6396 H       
  52 H52            3.0684     8.2257    -1.8791 H       
  53 H53            5.2885     9.2831    -1.8940 H       
  54 H54            7.3172     7.9151    -1.6692 H       
  55 H55           10.0709     4.6531    -0.0579 H       
  56 H56            9.0606     3.1764     0.0584 H       
  57 H57            9.1509     2.9340    -2.2366 H       
  58 H58           11.3887     4.0724    -2.0693 H       
  59 H59           10.5568     4.4585    -3.5949 H       
  60 H60           10.5769     5.6440    -2.2673 H       
  61 H61           -0.8082    -4.1543    -3.7983 H       
  62 H62           -0.9889    -6.6175    -3.1752 H       
  63 H63           -1.2160    -8.1946    -0.7833 H       
  64 H64           -1.3364    -7.9345     1.6537 H       
  65 H65           -1.2614    -5.7005     2.6775 H       
  66 H66           -1.0577    -3.7045     1.2820 H       
@<TRIPOS>BOND
   1    1    2 1
   2    1    6 1
   3    1   36 1
   4    1   37 1
   5    2    3 1
   6    2   38 1
   7    2   39 1
   8    3    4 1
   9    3    7 1
  10    4    5 1
  11    4   40 1
  12    4   41 1
  13    5    6 1
  14    5    9 1
  15    5   42 1
  16    6   43 1
  17    6   44 1
  18    7    8 1
  19    7   45 1
  20    7   46 1
  21    8   27 1
  22    8   47 1
  23    8   48 1
  24    9   10 1
  25    9   49 1
  26    9   50 1
  27   10   11 1
  28   11   12 2
  29   11   13 1
  30   13   14 ar
  31   13   18 ar
  32   14   15 ar
  33   14   51 1
  34   15   16 ar
  35   15   52 1
  36   16   17 ar
  37   16   53 1
  38   17   18 ar
  39   17   54 1
  40   18   19 1
  41   19   20 am
  42   19   23 am
  43   20   21 1
  44   20   24 2
  45   21   22 1
  46   21   55 1
  47   21   56 1
  48   22   23 1
  49   22   26 1
  50   22   57 1
  51   23   25 2
  52   26   58 1
  53   26   59 1
  54   26   60 1
  55   27   28 2
  56   27   31 1
  57   28   29 1
  58   28   61 1
  59   29   30 1
  60   29   62 1
  61   30   31 ar
  62   30   32 ar
  63   31   35 ar
  64   32   33 ar
  65   32   63 1
  66   33   34 ar
  67   33   64 1
  68   34   35 ar
  69   34   65 1
  70   35   66 1

#	End of record

