#	Name: ASD01310059
#	Creating user name:	WinNT
#	Creation time:	15. 06. 2019 19:15

#	Modifying user name:	WinNT
#	Modification time:	15. 06. 2019 19:15

#	Program:	/corina/corina34_cracker 3.40 0067  02.08.2006

@<TRIPOS>MOLECULE
ASD01310059
  47   51    0    0    0
SMALL
NO_CHARGES


@<TRIPOS>ATOM
   1 C1            -0.4192     1.4805     0.1184 C.3     
   2 C2            -0.7490     0.0236     0.1948 C.ar    
   3 C3            -0.9074    -0.6190     1.4175 C.ar    
   4 C4            -0.7089     1.4257     2.6090 C.2     
   5 C5            -0.9000    -0.7135    -0.9651 C.ar    
   6 N6            -1.1788    -2.0018    -0.9170 N.ar    
   7 C7            -1.3249    -2.6454     0.2257 C.ar    
   8 C8            -1.1956    -1.9809     1.4289 C.ar    
   9 N9             1.2851     3.0679     0.6632 N.am    
  10 C10            1.1092     1.6950     0.1531 C.3     
  11 C11           -0.8917     2.2484     1.3665 C.3     
  12 C12            0.0879     3.4433     1.4297 C.3     
  13 N13           -0.7829     0.0884     2.6068 N.am    
  14 O14           -0.4847     1.9947     3.6563 O.2     
  15 S15            2.6114     4.0276     0.4136 S.o2    
  16 O16            2.6270     4.9740     1.4734 O.2     
  17 O17            3.6952     3.1507     0.1386 O.2     
  18 C18            2.3230     4.9413    -1.0652 C.ar    
  19 C19            2.7170     4.4225    -2.2841 C.ar    
  20 C20            1.6980     6.1732    -1.0042 C.ar    
  21 C21            2.4932     5.1359    -3.4474 C.ar    
  22 H22           -0.8416     1.9158    -0.7873 H       
  23 H23           -1.9262     2.5751     1.2603 H       
  24 C24           -0.7322    -0.6392     3.8773 C.3     
  25 C25            1.8728     6.3730    -3.3933 C.ar    
  26 C26            0.4690     3.7272     2.8840 C.3     
  27 O27            1.5411     7.2630    -4.3737 O.3     
  28 C28            1.4703     6.8932    -2.1653 C.ar    
  29 O29            0.8853     8.1082    -2.3769 O.3     
  30 C30            0.5731     8.1474    -3.7787 C.3     
  31 H31           -0.7884    -0.2279    -1.9233 H       
  32 H32           -1.5477    -3.7021     0.2196 H       
  33 H33           -1.3158    -2.5088     2.3634 H       
  34 H34            1.5780     0.9770     0.8260 H       
  35 H35            1.5278     1.6061    -0.8494 H       
  36 H36           -0.3744     4.3254     0.9865 H       
  37 H37            3.2010     3.4581    -2.3282 H       
  38 H38            1.3870     6.5741    -0.0508 H       
  39 H39            2.8027     4.7284    -4.3985 H       
  40 H40            0.0687    -1.3777     3.8414 H       
  41 H41           -0.5438     0.0619     4.6903 H       
  42 H42           -1.6839    -1.1433     4.0455 H       
  43 H43            1.0570     4.6437     2.9332 H       
  44 H44           -0.4358     3.8436     3.4806 H       
  45 H45            1.0572     2.8967     3.2742 H       
  46 H46            0.6842     9.1576    -4.1726 H       
  47 H47           -0.4383     7.7781    -3.9486 H       
@<TRIPOS>BOND
   1    1    2 1
   2    1   10 1
   3    1   11 1
   4    1   22 1
   5    2    3 ar
   6    2    5 ar
   7    3   13 1
   8    3    8 ar
   9    4   11 1
  10    4   14 2
  11    4   13 am
  12    5    6 ar
  13    5   31 1
  14    6    7 ar
  15    7    8 ar
  16    7   32 1
  17    8   33 1
  18    9   10 1
  19    9   12 1
  20    9   15 am
  21   10   34 1
  22   10   35 1
  23   11   23 1
  24   11   12 1
  25   12   26 1
  26   12   36 1
  27   13   24 1
  28   15   16 2
  29   15   17 2
  30   15   18 1
  31   18   20 ar
  32   18   19 ar
  33   19   21 ar
  34   19   37 1
  35   20   28 ar
  36   20   38 1
  37   21   25 ar
  38   21   39 1
  39   24   40 1
  40   24   41 1
  41   24   42 1
  42   25   28 ar
  43   25   27 1
  44   26   43 1
  45   26   44 1
  46   26   45 1
  47   27   30 1
  48   28   29 1
  49   29   30 1
  50   30   46 1
  51   30   47 1

#	End of record

