#	Name: ASD01814438
#	Creating user name:	WinNT
#	Creation time:	15. 06. 2019 19:32

#	Modifying user name:	WinNT
#	Modification time:	15. 06. 2019 19:32

#	Program:	/corina/corina34_cracker 3.40 0067  02.08.2006

@<TRIPOS>MOLECULE
ASD01814438
  53   58    0    0    0
SMALL
NO_CHARGES


@<TRIPOS>ATOM
   1 C1            -0.0204     1.3735     0.1434 C.ar    
   2 C2             0.0111    -0.0081     0.2488 C.ar    
   3 C3             1.2039    -0.6965     0.1510 C.ar    
   4 C4             2.3903    -0.0011    -0.0561 C.ar    
   5 C5             2.3523     1.4027    -0.1629 C.ar    
   6 C6             1.1462     2.0828    -0.0622 C.ar    
   7 N7             3.5985    -0.6602    -0.1577 N.pl3   
   8 N8             4.7187    -0.0653    -0.3479 N.2     
   9 C9             4.8416     1.2314    -0.4668 C.2     
  10 C10            3.6365     2.0926    -0.3821 C.2     
  11 C11            5.9525     2.1612    -0.6821 C.2     
  12 N12            5.4091     3.3970    -0.7109 N.am    
  13 N13            4.0257     3.3242    -0.5293 N.2     
  14 C14            3.6017    -2.1206    -0.0414 C.3     
  15 C15            5.0123    -2.6325    -0.1807 C.ar    
  16 C16            5.8085    -2.7749     0.9409 C.ar    
  17 C17            7.1018    -3.2434     0.8165 C.ar    
  18 C18            7.6021    -3.5718    -0.4363 C.ar    
  19 C19            6.8002    -3.4281    -1.5605 C.ar    
  20 C20            5.5059    -2.9641    -1.4291 C.ar    
  21 O21            7.1317     1.8764    -0.8093 O.2     
  22 C22            6.1295     4.5827    -0.8964 C.ar    
  23 N23            8.9146    -4.0471    -0.5659 N.pl3   
  24 C24            9.5224    -4.4012    -1.7208 C.2     
  25 C25           10.7783    -4.8038    -1.4184 C.2     
  26 C26           10.9447    -4.6926    -0.0336 C.2     
  27 N27            9.8307    -4.2336     0.4774 N.2     
  28 C28            6.9485     4.7327    -2.0078 C.ar    
  29 C29            7.6581     5.9040    -2.1879 C.ar    
  30 C30            7.5540     6.9263    -1.2628 C.ar    
  31 C31            6.7391     6.7801    -0.1547 C.ar    
  32 C32            6.0223     5.6142     0.0280 C.ar    
  33 C33            5.1348     5.4557     1.2355 C.3     
  34 Cl34           1.2228    -2.4271     0.2868 Cl      
  35 H35           -0.9620     1.8971     0.2179 H       
  36 H36           -0.9077    -0.5524     0.4096 H       
  37 H37            1.1205     3.1593    -0.1449 H       
  38 H38            3.2052    -2.4084     0.9322 H       
  39 H39            2.9805    -2.5491    -0.8279 H       
  40 H40            5.4187    -2.5193     1.9152 H       
  41 H41            7.7234    -3.3537     1.6927 H       
  42 H42            7.1867    -3.6825    -2.5363 H       
  43 H43            4.8816    -2.8521    -2.3032 H       
  44 H44            9.0839    -4.3690    -2.7073 H       
  45 H45           11.5212    -5.1500    -2.1218 H       
  46 H46           11.8399    -4.9388     0.5182 H       
  47 H47            7.0309     3.9343    -2.7304 H       
  48 H48            8.2952     6.0213    -3.0520 H       
  49 H49            8.1104     7.8409    -1.4055 H       
  50 H50            6.6600     7.5805     0.5660 H       
  51 H51            4.1341     5.8188     1.0011 H       
  52 H52            5.0835     4.4029     1.5131 H       
  53 H53            5.5447     6.0308     2.0658 H       
@<TRIPOS>BOND
   1    1    2 ar
   2    1    6 ar
   3    1   35 1
   4    2    3 ar
   5    2   36 1
   6    3    4 ar
   7    3   34 1
   8    4    5 ar
   9    4    7 1
  10    5    6 ar
  11    5   10 1
  12    6   37 1
  13    7    8 1
  14    7   14 1
  15    8    9 2
  16    9   10 1
  17    9   11 1
  18   10   13 2
  19   11   12 am
  20   11   21 2
  21   12   13 1
  22   12   22 1
  23   14   15 1
  24   14   38 1
  25   14   39 1
  26   15   16 ar
  27   15   20 ar
  28   16   17 ar
  29   16   40 1
  30   17   18 ar
  31   17   41 1
  32   18   19 ar
  33   18   23 1
  34   19   20 ar
  35   19   42 1
  36   20   43 1
  37   22   28 ar
  38   22   32 ar
  39   23   24 1
  40   23   27 1
  41   24   25 2
  42   24   44 1
  43   25   26 1
  44   25   45 1
  45   26   27 2
  46   26   46 1
  47   28   29 ar
  48   28   47 1
  49   29   30 ar
  50   29   48 1
  51   30   31 ar
  52   30   49 1
  53   31   32 ar
  54   31   50 1
  55   32   33 1
  56   33   51 1
  57   33   52 1
  58   33   53 1

#	End of record

