#	Name: ASD01410353
#	Creating user name:	WinNT
#	Creation time:	15. 06. 2019 19:17

#	Modifying user name:	WinNT
#	Modification time:	15. 06. 2019 19:17

#	Program:	/corina/corina34_cracker 3.40 0067  02.08.2006

@<TRIPOS>MOLECULE
ASD01410353
  61   65    0    0    0
SMALL
NO_CHARGES


@<TRIPOS>ATOM
   1 N1            -0.0166     1.3710     0.0096 N.pl3   
   2 C2             0.0021    -0.0041     0.0020 C.2     
   3 C3            -1.2725    -0.4705     0.0122 C.2     
   4 C4            -2.1421     0.6464     0.0268 C.ar    
   5 C5            -1.3279     1.7973     0.0304 C.ar    
   6 C6            -3.5385     0.7767     0.0410 C.ar    
   7 C7            -4.1072     2.0130     0.0525 C.ar    
   8 C8            -3.3052     3.1643     0.0506 C.ar    
   9 C9            -1.9161     3.0529     0.0442 C.ar    
  10 C10           -2.5092    -2.2177     1.2640 C.3     
  11 C11           -2.9309    -3.6885     1.2598 C.3     
  12 C12           -3.7773    -3.9728     0.0174 C.3     
  13 C13           -2.9560    -3.6742    -1.2385 C.3     
  14 C14           -2.5343    -2.2035    -1.2343 C.3     
  15 C15           -1.6879    -1.9191     0.0081 C.3     
  16 C16            1.1628     2.2400     0.0030 C.3     
  17 C17            1.5536     2.5456    -1.4200 C.2     
  18 O18            0.9104     2.0831    -2.3382 O.2     
  19 C19            3.0188     3.6454    -3.0532 C.3     
  20 N20            2.6180     3.3330    -1.6722 N.am    
  21 C21            3.4134     3.9060    -0.5748 C.3     
  22 C22            3.1844     5.1644    -3.1767 C.3     
  23 C23            3.5597     5.4123    -0.8190 C.3     
  24 O24            4.0553     5.6286    -2.1424 O.3     
  25 C25            3.4524    -2.3215    -0.0685 C.ar    
  26 C26            2.2720    -2.8283     0.4476 C.ar    
  27 N27            1.1823    -2.0835     0.4652 N.ar    
  28 C28            1.2193    -0.8426    -0.0146 C.ar    
  29 C29            2.4129    -0.3358    -0.5344 C.ar    
  30 N30            3.4959    -1.0892    -0.5468 N.ar    
  31 C31           -3.9348     4.4976     0.0627 C.2     
  32 O32           -3.2427     5.4963     0.0611 O.2     
  33 O33           -5.2778     4.6085     0.0753 O.3     
  34 H34           -4.1628    -0.1046     0.0425 H       
  35 H35           -5.1829     2.1085     0.0627 H       
  36 H36           -1.3006     3.9404     0.0428 H       
  37 H37           -3.3968    -1.5853     1.2765 H       
  38 H38           -1.9062    -2.0152     2.1491 H       
  39 H39           -2.0432    -4.3209     1.2473 H       
  40 H40           -3.5160    -3.9012     2.1546 H       
  41 H41           -4.0777    -5.0206     0.0145 H       
  42 H42           -4.6650    -3.3403     0.0300 H       
  43 H43           -2.0684    -4.3067    -1.2510 H       
  44 H44           -3.5590    -3.8768    -2.1236 H       
  45 H45           -1.9492    -1.9907    -2.1290 H       
  46 H46           -3.4220    -1.5710    -1.2218 H       
  47 H47           -0.8002    -2.5516    -0.0044 H       
  48 H48            0.9323     3.1693     0.5240 H       
  49 H49            1.9881     1.7363     0.5063 H       
  50 H50            3.9643     3.1534    -3.2813 H       
  51 H51            2.2496     3.3025    -3.7452 H       
  52 H52            2.9055     3.7357     0.3745 H       
  53 H53            4.3986     3.4402    -0.5533 H       
  54 H54            3.6130     5.4061    -4.1493 H       
  55 H55            2.2116     5.6460    -3.0769 H       
  56 H56            2.5883     5.8947    -0.7106 H       
  57 H57            4.2584     5.8323    -0.0954 H       
  58 H58            4.3424    -2.9333    -0.0766 H       
  59 H59            2.2426    -3.8354     0.8364 H       
  60 H60            2.4490     0.6703    -0.9254 H       
  61 H61           -5.6443     5.5033     0.0829 H       
@<TRIPOS>BOND
   1    1    2 1
   2    1   16 1
   3    1    5 1
   4    2    3 2
   5    2   28 1
   6    3    4 1
   7    3   15 1
   8    4    5 ar
   9    4    6 ar
  10    5    9 ar
  11    6    7 ar
  12    6   34 1
  13    7    8 ar
  14    7   35 1
  15    8    9 ar
  16    8   31 1
  17    9   36 1
  18   10   11 1
  19   10   15 1
  20   10   37 1
  21   10   38 1
  22   11   12 1
  23   11   39 1
  24   11   40 1
  25   12   13 1
  26   12   41 1
  27   12   42 1
  28   13   14 1
  29   13   43 1
  30   13   44 1
  31   14   15 1
  32   14   45 1
  33   14   46 1
  34   15   47 1
  35   16   17 1
  36   16   48 1
  37   16   49 1
  38   17   18 2
  39   17   20 am
  40   19   20 1
  41   19   22 1
  42   19   50 1
  43   19   51 1
  44   20   21 1
  45   21   23 1
  46   21   52 1
  47   21   53 1
  48   22   24 1
  49   22   54 1
  50   22   55 1
  51   23   24 1
  52   23   56 1
  53   23   57 1
  54   25   26 ar
  55   25   30 ar
  56   25   58 1
  57   26   27 ar
  58   26   59 1
  59   27   28 ar
  60   28   29 ar
  61   29   30 ar
  62   29   60 1
  63   31   32 2
  64   31   33 1
  65   33   61 1

#	End of record

