#	Name: ASD07930449
#	Creating user name:	WinNT
#	Creation time:	15. 06. 2019 21:12

#	Modifying user name:	WinNT
#	Modification time:	15. 06. 2019 21:12

#	Program:	/corina/corina34_cracker 3.40 0067  02.08.2006

@<TRIPOS>MOLECULE
ASD07930449
  54   57    0    0    0
SMALL
NO_CHARGES


@<TRIPOS>ATOM
   1 N1             0.0094     1.3422     0.2687 N.pl3   
   2 N2             3.4440    12.7291    -0.7997 N.2     
   3 N3             4.6930    10.9372     0.0311 N.pl3   
   4 C4             6.1229    10.6110     0.0173 C.3     
   5 C5             6.7871    11.1939     1.2723 C.3     
   6 S6             6.4599    12.9844     1.3123 S.o2    
   7 N7             4.8127    13.0618     1.0736 N.am    
   8 C8             4.2890    12.2560     0.0726 C.2     
   9 C9             3.9593    13.9371     1.8810 C.3     
  10 C10            6.7721    11.2126    -1.2307 C.3     
  11 C11            6.2974     9.1142     0.0047 C.ar    
  12 C12            5.1944     8.2901     0.1089 C.ar    
  13 C13            5.3558     6.9106     0.0967 C.ar    
  14 C14            6.6266     6.3632    -0.0202 C.ar    
  15 C15            7.7272     7.1913    -0.1241 C.ar    
  16 C16            7.5635     8.5662    -0.1171 C.ar    
  17 N17            4.2394     6.0735     0.2026 N.am    
  18 C18            4.2111     4.9008    -0.4610 C.2     
  19 O19            5.1103     4.6139    -1.2269 O.2     
  20 C20            3.0857     3.9626    -0.2571 C.ar    
  21 O21            6.6565    13.5038     2.6203 O.2     
  22 O22            7.0169    13.6244     0.1724 O.2     
  23 C23            3.0559     2.7491    -0.9434 C.ar    
  24 F24            8.6414     9.3743    -0.2189 F       
  25 N25            2.0510     1.9125    -0.7602 N.ar    
  26 C26            1.0707     2.2262     0.0761 C.ar    
  27 C27            1.1000     3.4409     0.7634 C.ar    
  28 N28            2.1030     4.2739     0.5862 N.ar    
  29 C29           -0.1450     0.1330    -0.3326 C.2     
  30 C30           -1.2985    -0.4061     0.1231 C.2     
  31 C31           -1.8687     0.4962     1.0292 C.2     
  32 N32           -1.0848     1.5391     1.1211 N.2     
  33 C33           -1.8699    -1.7426    -0.2748 C.3     
  34 H34            3.1712    13.6589    -0.7558 H       
  35 H35            4.0325    10.2273     0.0071 H       
  36 H36            6.3679    10.7238     2.1619 H       
  37 H37            7.8621    11.0176     1.2347 H       
  38 H38            3.8819    14.9126     1.4009 H       
  39 H39            2.9665    13.4958     1.9693 H       
  40 H40            4.3945    14.0541     2.8734 H       
  41 H41            6.6470    12.2953    -1.2193 H       
  42 H42            7.8347    10.9698    -1.2403 H       
  43 H43            6.2973    10.8013    -2.1214 H       
  44 H44            4.2069     8.7178     0.2001 H       
  45 H45            6.7543     5.2909    -0.0295 H       
  46 H46            8.7158     6.7660    -0.2151 H       
  47 H47            3.4859     6.3373     0.7536 H       
  48 H48            3.8541     2.4939    -1.6247 H       
  49 H49            0.3009     3.6954     1.4439 H       
  50 H50            0.5309    -0.3158    -1.0454 H       
  51 H51           -2.7957     0.3533     1.5645 H       
  52 H52           -1.4943    -2.5133     0.3984 H       
  53 H53           -2.9575    -1.7055    -0.2137 H       
  54 H54           -1.5711    -1.9758    -1.2968 H       
@<TRIPOS>BOND
   1    1   29 1
   2    1   26 1
   3    1   32 1
   4    2    8 2
   5    2   34 1
   6    3    4 1
   7    3    8 1
   8    3   35 1
   9    4    5 1
  10    4   10 1
  11    4   11 1
  12    5    6 1
  13    5   36 1
  14    5   37 1
  15    6    7 am
  16    6   21 2
  17    6   22 2
  18    7    8 1
  19    7    9 1
  20    9   38 1
  21    9   39 1
  22    9   40 1
  23   10   41 1
  24   10   42 1
  25   10   43 1
  26   11   12 ar
  27   11   16 ar
  28   12   13 ar
  29   12   44 1
  30   13   14 ar
  31   13   17 1
  32   14   15 ar
  33   14   45 1
  34   15   16 ar
  35   15   46 1
  36   16   24 1
  37   17   18 am
  38   17   47 1
  39   18   19 2
  40   18   20 1
  41   20   23 ar
  42   20   28 ar
  43   23   25 ar
  44   23   48 1
  45   25   26 ar
  46   26   27 ar
  47   27   28 ar
  48   27   49 1
  49   29   30 2
  50   29   50 1
  51   30   31 1
  52   30   33 1
  53   31   32 2
  54   31   51 1
  55   33   52 1
  56   33   53 1
  57   33   54 1

#	End of record

