#	Name: ASD00069230
#	Creating user name:	WinNT
#	Creation time:	15. 06. 2019 18:29

#	Modifying user name:	WinNT
#	Modification time:	15. 06. 2019 18:29

#	Program:	/corina/corina34_cracker 3.40 0067  02.08.2006

@<TRIPOS>MOLECULE
ASD00069230
  92   97    0    0    0
SMALL
NO_CHARGES


@<TRIPOS>ATOM
   1 C1            -0.0162     1.3058     0.0437 C.2     
   2 N2            -0.0002    -0.0077     0.0318 N.2     
   3 C3             1.2712    -0.4298     0.0344 C.2     
   4 C4             2.0845     0.6819     0.0487 C.2     
   5 N5             1.2729     1.7619     0.0545 N.pl3   
   6 C6            -1.2254     2.1497     0.0398 C.2     
   7 O7            -1.1214     3.3614     0.0515 O.2     
   8 N8            -2.4459     1.5783     0.0232 N.am    
   9 C9             3.4330    -3.3946     0.0191 C.ar    
  10 N10            3.0230    -2.1361     0.0281 N.ar    
  11 C11            1.7224    -1.8418     0.0237 C.ar    
  12 C12            0.7934    -2.8804     0.0094 C.ar    
  13 C13            1.2656    -4.1913     0.0003 C.ar    
  14 N14            2.5784    -4.4066     0.0055 N.ar    
  15 N15            4.7913    -3.6603     0.0182 N.pl3   
  16 C16            5.7537    -2.5558     0.0272 C.3     
  17 N17            0.3794    -5.2568    -0.0136 N.3     
  18 C18            1.1020    -6.5472    -0.0213 C.3     
  19 C19            0.2640    -7.5292    -0.8607 C.3     
  20 C20           -0.9516    -6.7081    -1.3485 C.3     
  21 C21           -0.4453    -5.2471    -1.2489 C.3     
  22 C22           -0.2005    -8.7037     0.0028 C.3     
  23 O23           -0.9756    -9.6027    -0.7929 O.3     
  24 C24           -1.4609   -10.7409    -0.0780 C.3     
  25 C25            1.0644    -8.0275    -2.0364 C.2     
  26 N26            0.5156    -8.9011    -2.9036 N.am    
  27 O27            2.2024    -7.6423    -2.2022 O.2     
  28 C28            1.2937    -9.3855    -4.0465 C.3     
  29 C29            0.4567   -10.3438    -4.8540 C.ar    
  30 C30           -0.3321    -9.8718    -5.8864 C.ar    
  31 C31           -1.0999   -10.7509    -6.6271 C.ar    
  32 C32           -1.0784   -12.1021    -6.3358 C.ar    
  33 C33           -0.2888   -12.5742    -5.3040 C.ar    
  34 C34            0.4822   -11.6956    -4.5660 C.ar    
  35 C35           -3.5930     2.3733     0.1389 C.ar    
  36 C36           -4.7618     2.0158    -0.5319 C.ar    
  37 C37           -5.8955     2.8086    -0.4128 C.ar    
  38 C38           -5.8620     3.9497     0.3701 C.ar    
  39 C39           -4.7021     4.3027     1.0347 C.ar    
  40 C40           -3.5709     3.5156     0.9259 C.ar    
  41 F41           -7.0304     2.4669    -1.0612 F       
  42 N42           -4.7921     0.8608    -1.3238 N.3     
  43 C43           -5.8047    -0.0847    -0.8368 C.3     
  44 C44           -5.7107    -1.3891    -1.6316 C.3     
  45 C45           -5.9343    -1.0932    -3.1172 C.3     
  46 C46           -4.8971    -0.0696    -3.5874 C.3     
  47 C47           -5.0148     1.1966    -2.7359 C.3     
  48 C48           -5.7813    -2.3839    -3.9243 C.3     
  49 N49           -6.1129    -2.1236    -5.3315 N.3     
  50 H50            3.1645     0.6888     0.0542 H       
  51 H51            1.5531     2.6905     0.0641 H       
  52 H52           -2.5298     0.6163    -0.0688 H       
  53 H53           -0.2668    -2.6743     0.0059 H       
  54 H54            5.1060    -4.5778     0.0117 H       
  55 H55            6.7672    -2.9569     0.0250 H       
  56 H56            5.6057    -1.9377    -0.8584 H       
  57 H57            5.6042    -1.9509     0.9216 H       
  58 H58            2.0860    -6.4191    -0.4723 H       
  59 H59            1.2035    -6.9221     0.9972 H       
  60 H60           -1.1993    -6.9610    -2.3794 H       
  61 H61           -1.8099    -6.8643    -0.6950 H       
  62 H62           -1.2821    -4.5561    -1.1474 H       
  63 H63            0.1635    -4.9910    -2.1159 H       
  64 H64            0.6682    -9.2278     0.4012 H       
  65 H65           -0.8091    -8.3307     0.8266 H       
  66 H66           -0.6182   -11.3072     0.3187 H       
  67 H67           -2.0956   -10.4101     0.7441 H       
  68 H68           -2.0390   -11.3736    -0.7515 H       
  69 H69           -0.3946    -9.2092    -2.7710 H       
  70 H70            1.5847    -8.5414    -4.6718 H       
  71 H71            2.1869    -9.8967    -3.6875 H       
  72 H72           -0.3489    -8.8162    -6.1141 H       
  73 H73           -1.7168   -10.3821    -7.4333 H       
  74 H74           -1.6788   -12.7888    -6.9140 H       
  75 H75           -0.2723   -13.6297    -5.0761 H       
  76 H76            1.1019   -12.0649    -3.7623 H       
  77 H77           -6.7442     4.5659     0.4619 H       
  78 H78           -4.6809     5.1941     1.6441 H       
  79 H79           -2.6683     3.7922     1.4504 H       
  80 H80           -5.6318    -0.2898     0.2197 H       
  81 H81           -6.7970     0.3479    -0.9649 H       
  82 H82           -4.7232    -1.8294    -1.4928 H       
  83 H83           -6.4726    -2.0849    -1.2804 H       
  84 H84           -6.9363    -0.6890    -3.2612 H       
  85 H85           -3.8969    -0.4891    -3.4794 H       
  86 H86           -5.0779     0.1773    -4.6335 H       
  87 H87           -6.0107     1.6232    -2.8551 H       
  88 H88           -4.2681     1.9221    -3.0588 H       
  89 H89           -4.7526    -2.7373    -3.8528 H       
  90 H90           -6.4548    -3.1431    -3.5267 H       
  91 H91           -5.5451    -1.3777    -5.7049 H       
  92 H92           -6.0194    -2.9615    -5.8860 H       
@<TRIPOS>BOND
   1    1    2 2
   2    1    5 1
   3    1    6 1
   4    2    3 1
   5    3    4 2
   6    3   11 1
   7    4    5 1
   8    4   50 1
   9    5   51 1
  10    6    7 2
  11    6    8 am
  12    8   35 1
  13    8   52 1
  14    9   10 ar
  15    9   14 ar
  16    9   15 1
  17   10   11 ar
  18   11   12 ar
  19   12   13 ar
  20   12   53 1
  21   13   14 ar
  22   13   17 1
  23   15   16 1
  24   15   54 1
  25   16   55 1
  26   16   56 1
  27   16   57 1
  28   17   18 1
  29   17   21 1
  30   18   19 1
  31   18   58 1
  32   18   59 1
  33   19   20 1
  34   19   22 1
  35   19   25 1
  36   20   21 1
  37   20   60 1
  38   20   61 1
  39   21   62 1
  40   21   63 1
  41   22   23 1
  42   22   64 1
  43   22   65 1
  44   23   24 1
  45   24   66 1
  46   24   67 1
  47   24   68 1
  48   25   26 am
  49   25   27 2
  50   26   28 1
  51   26   69 1
  52   28   29 1
  53   28   70 1
  54   28   71 1
  55   29   30 ar
  56   29   34 ar
  57   30   31 ar
  58   30   72 1
  59   31   32 ar
  60   31   73 1
  61   32   33 ar
  62   32   74 1
  63   33   34 ar
  64   33   75 1
  65   34   76 1
  66   35   36 ar
  67   35   40 ar
  68   36   37 ar
  69   36   42 1
  70   37   38 ar
  71   37   41 1
  72   38   39 ar
  73   38   77 1
  74   39   40 ar
  75   39   78 1
  76   40   79 1
  77   42   43 1
  78   42   47 1
  79   43   44 1
  80   43   80 1
  81   43   81 1
  82   44   45 1
  83   44   82 1
  84   44   83 1
  85   45   46 1
  86   45   48 1
  87   45   84 1
  88   46   47 1
  89   46   85 1
  90   46   86 1
  91   47   87 1
  92   47   88 1
  93   48   49 1
  94   48   89 1
  95   48   90 1
  96   49   91 1
  97   49   92 1

#	End of record

