#	Name: ASD00069311
#	Creating user name:	WinNT
#	Creation time:	15. 06. 2019 18:29

#	Modifying user name:	WinNT
#	Modification time:	15. 06. 2019 18:29

#	Program:	/corina/corina34_cracker 3.40 0067  02.08.2006

@<TRIPOS>MOLECULE
ASD00069311
  99  103    0    0    0
SMALL
NO_CHARGES


@<TRIPOS>ATOM
   1 C1             2.9930     5.1973    -0.1971 C.3     
   2 N2             2.3978     5.6255    -1.4705 N.am    
   3 C3             2.7687     4.9102    -2.6991 C.3     
   4 C4             2.5229     3.4124    -2.4916 C.3     
   5 C5             3.2727     2.9447    -1.2420 C.3     
   6 C6             2.7469     3.6966    -0.0182 C.3     
   7 C7             3.4735     3.2067     1.2364 C.3     
   8 C8             2.9012     3.9213     2.4629 C.3     
   9 N9             1.4629     3.6433     2.5659 N.3     
  10 C10            0.7383     4.1487     1.3930 C.3     
  11 C11            1.2457     3.4408     0.1345 C.3     
  12 C12            1.5281     6.6543    -1.5106 C.2     
  13 O13            1.1589     7.1784    -0.4783 O.2     
  14 O14            1.0684     7.1014    -2.6944 O.3     
  15 C15            0.9329     4.1723     3.7498 C.ar    
  16 C16            0.9809     5.5404     3.9843 C.ar    
  17 C17            0.4560     6.0598     5.1546 C.ar    
  18 C18           -0.1165     5.2199     6.0926 C.ar    
  19 C19           -0.1676     3.8575     5.8669 C.ar    
  20 C20            0.3505     3.3279     4.6935 C.ar    
  21 C21            0.2178     1.0923     5.4994 C.2     
  22 O22            0.3073     1.5089     6.6386 O.2     
  23 N23            0.2940     1.9481     4.4610 N.am    
  24 C24            0.0260    -0.3488     5.2545 C.2     
  25 N25            0.0088    -0.9313     4.0762 N.2     
  26 C26           -0.1879    -2.2453     4.2421 C.2     
  27 C27           -0.2978    -2.4906     5.5826 C.2     
  28 N28           -0.1580    -1.3044     6.2152 N.pl3   
  29 C29           -0.1990    -1.0828     7.6628 C.3     
  30 O30           -0.4095    -2.3290     8.3297 O.3     
  31 C31           -0.4660    -2.2239     9.7537 C.3     
  32 C32           -0.6934    -3.6107    10.3588 C.3     
  33 Si33          -0.7670    -3.4737    12.2153 Si      
  34 C34           -2.1694    -2.3471    12.6997 C.3     
  35 C35           -1.0439    -5.1622    12.9521 C.3     
  36 C36            0.8389    -2.7747    12.8505 C.3     
  37 C37           -0.1305    -3.8777     0.8538 C.ar    
  38 C38           -0.0420    -2.9050     1.8281 C.ar    
  39 C39           -0.2725    -3.2573     3.1609 C.ar    
  40 C40           -0.5847    -4.5898     3.4473 C.ar    
  41 C41           -0.6527    -5.4984     2.4121 C.ar    
  42 N42           -0.4279    -5.1244     1.1667 N.ar    
  43 C43            0.1096    -3.5100    -0.5878 C.3     
  44 F44            1.5401     6.3636     3.0706 F       
  45 C45            0.0457     8.1316    -2.6580 C.3     
  46 C46            0.6256     9.4041    -2.0371 C.3     
  47 C47           -0.4292     8.4294    -4.0816 C.3     
  48 C48           -1.1368     7.6468    -1.8168 C.3     
  49 H49            4.0653     5.3926    -0.2109 H       
  50 H50            2.5304     5.7439     0.6247 H       
  51 H51            2.1596     5.2689    -3.5288 H       
  52 H52            3.8231     5.0806    -2.9169 H       
  53 H53            1.4553     3.2333    -2.3636 H       
  54 H54            2.8833     2.8609    -3.3599 H       
  55 H55            3.1178     1.8745    -1.1048 H       
  56 H56            4.3375     3.1448    -1.3613 H       
  57 H57            3.3314     2.1312     1.3427 H       
  58 H58            4.5375     3.4271     1.1503 H       
  59 H59            3.4056     3.5630     3.3603 H       
  60 H60            3.0572     4.9955     2.3631 H       
  61 H61           -0.3277     3.9554     1.5136 H       
  62 H62            0.9042     5.2218     1.2981 H       
  63 H63            0.7199     3.8284    -0.7381 H       
  64 H64            1.0661     2.3693     0.2221 H       
  65 H65            0.4937     7.1238     5.3362 H       
  66 H66           -0.5245     5.6301     7.0046 H       
  67 H67           -0.6149     3.2050     6.6022 H       
  68 H68            0.3097     1.6082     3.5526 H       
  69 H69           -0.4614    -3.4513     6.0483 H       
  70 H70            0.7460    -0.6501     7.9911 H       
  71 H71           -1.0140    -0.4000     7.9029 H       
  72 H72            0.4735    -1.8149    10.1253 H       
  73 H73           -1.2865    -1.5648    10.0371 H       
  74 H74           -1.6329    -4.0196     9.9871 H       
  75 H75            0.1272    -4.2698    10.0753 H       
  76 H76           -3.1090    -2.7561    12.3281 H       
  77 H77           -2.2125    -2.2670    13.7859 H       
  78 H78           -2.0074    -1.3592    12.2687 H       
  79 H79           -0.2233    -5.8213    12.6686 H       
  80 H80           -1.0869    -5.0821    14.0383 H       
  81 H81           -1.9834    -5.5712    12.5804 H       
  82 H82            1.0009    -1.7867    12.4194 H       
  83 H83            0.7958    -2.6945    13.9367 H       
  84 H84            1.6594    -3.4338    12.5670 H       
  85 H85            0.2023    -1.8864     1.5649 H       
  86 H86           -0.7695    -4.9029     4.4643 H       
  87 H87           -0.8928    -6.5300     2.6235 H       
  88 H88            1.1788    -3.5409    -0.7975 H       
  89 H89           -0.4081    -4.2184    -1.2345 H       
  90 H90           -0.2682    -2.5047    -0.7742 H       
  91 H91            1.4680     9.7494    -2.6364 H       
  92 H92           -0.1421    10.1774    -2.0097 H       
  93 H93            0.9639     9.1919    -1.0229 H       
  94 H94           -0.7603     7.5050    -4.5549 H       
  95 H95           -1.2574     9.1372    -4.0477 H       
  96 H96            0.3918     8.8580    -4.6563 H       
  97 H97           -0.8198     7.5240    -0.7811 H       
  98 H98           -1.9422     8.3796    -1.8658 H       
  99 H99           -1.4907     6.6914    -2.2041 H       
@<TRIPOS>BOND
   1    1    2 1
   2    1    6 1
   3    1   49 1
   4    1   50 1
   5    2    3 1
   6    2   12 am
   7    3    4 1
   8    3   51 1
   9    3   52 1
  10    4    5 1
  11    4   53 1
  12    4   54 1
  13    5    6 1
  14    5   55 1
  15    5   56 1
  16    6    7 1
  17    6   11 1
  18    7    8 1
  19    7   57 1
  20    7   58 1
  21    8    9 1
  22    8   59 1
  23    8   60 1
  24    9   10 1
  25    9   15 1
  26   10   11 1
  27   10   61 1
  28   10   62 1
  29   11   63 1
  30   11   64 1
  31   12   13 2
  32   12   14 1
  33   14   45 1
  34   15   16 ar
  35   15   20 ar
  36   16   17 ar
  37   16   44 1
  38   17   18 ar
  39   17   65 1
  40   18   19 ar
  41   18   66 1
  42   19   20 ar
  43   19   67 1
  44   20   23 1
  45   21   22 2
  46   21   23 am
  47   21   24 1
  48   23   68 1
  49   24   25 2
  50   24   28 1
  51   25   26 1
  52   26   27 2
  53   26   39 1
  54   27   28 1
  55   27   69 1
  56   28   29 1
  57   29   30 1
  58   29   70 1
  59   29   71 1
  60   30   31 1
  61   31   32 1
  62   31   72 1
  63   31   73 1
  64   32   33 1
  65   32   74 1
  66   32   75 1
  67   33   34 1
  68   33   35 1
  69   33   36 1
  70   34   76 1
  71   34   77 1
  72   34   78 1
  73   35   79 1
  74   35   80 1
  75   35   81 1
  76   36   82 1
  77   36   83 1
  78   36   84 1
  79   37   38 ar
  80   37   42 ar
  81   37   43 1
  82   38   39 ar
  83   38   85 1
  84   39   40 ar
  85   40   41 ar
  86   40   86 1
  87   41   42 ar
  88   41   87 1
  89   43   88 1
  90   43   89 1
  91   43   90 1
  92   45   46 1
  93   45   48 1
  94   45   47 1
  95   46   91 1
  96   46   92 1
  97   46   93 1
  98   47   94 1
  99   47   95 1
 100   47   96 1
 101   48   97 1
 102   48   98 1
 103   48   99 1

#	End of record

