#	Name: ASD05270003
#	Creating user name:	WinNT
#	Creation time:	15. 06. 2019 20:58

#	Modifying user name:	WinNT
#	Modification time:	15. 06. 2019 20:58

#	Program:	/corina/corina34_cracker 3.40 0067  02.08.2006

@<TRIPOS>MOLECULE
ASD05270003
 160  136    0    0    0
SMALL
NO_CHARGES


@<TRIPOS>ATOM
   1 O1            -0.3984     1.9987     0.9138 O.3     
   2 C2            -0.1614     0.6075     0.6892 C.3     
   3 C3             1.7249     2.6716    -0.0237 C.3     
   4 C4             0.7835     2.7564     1.1806 C.3     
   5 O5             2.9321     3.3804     0.2631 O.3     
   6 O6             2.7413     0.6415     0.8122 O.3     
   7 O7            -1.4055    -0.0570     0.4598 O.3     
   8 O8             0.0822     0.9542    -1.6916 O.3     
   9 C9             0.4068     4.2179     1.4318 C.3     
  10 C10            0.7421     0.4364    -0.5348 C.3     
  11 C11            2.0493     1.2014    -0.3057 C.3     
  12 N12           -0.3997     4.3122     2.6560 N.3     
  13 C13           -2.2829    -0.0534     1.5877 C.3     
  14 C14           -3.5765    -0.7880     1.2299 C.3     
  15 C15           -4.1949    -0.1536    -0.0176 C.3     
  16 N16           -3.2801    -2.1980     0.9649 N.am    
  17 C17           -3.2157    -3.0764     1.9850 C.2     
  18 O18           -3.4041    -2.6977     3.1280 O.2     
  19 C19           -5.5543    -0.7977    -0.2967 C.3     
  20 O20           -4.3672     1.2487     0.1967 O.3     
  21 O21           -5.3820    -2.2000    -0.5111 O.3     
  22 C22           -2.9260    -4.4546     1.7260 C.1     
  23 C23           -2.6884    -5.5845     1.5136 C.1     
  24 C24           -2.4098    -6.9099     1.2645 C.1     
  25 C25           -2.1723    -8.0398     1.0521 C.1     
  26 C26           -1.8937    -9.3651     0.8030 C.1     
  27 C27           -1.6561   -10.4950     0.5906 C.1     
  28 C28           -1.3775   -11.8203     0.3415 C.1     
  29 C29           -1.1400   -12.9503     0.1291 C.1     
  30 C30           -0.8614   -14.2756    -0.1200 C.1     
  31 C31           -0.6238   -15.4055    -0.3323 C.1     
  32 C32           -0.3452   -16.7308    -0.5814 C.1     
  33 C33           -0.1077   -17.8608    -0.7938 C.1     
  34 C34            0.1709   -19.1861    -1.0429 C.1     
  35 C35            0.4085   -20.3160    -1.2553 C.1     
  36 C36            0.6871   -21.6413    -1.5044 C.1     
  37 C37            0.9246   -22.7712    -1.7168 C.1     
  38 C38            1.2033   -24.0966    -1.9659 C.1     
  39 C39            1.4408   -25.2265    -2.1783 C.1     
  40 C40            1.7194   -26.5518    -2.4274 C.1     
  41 C41            1.9569   -27.6817    -2.6398 C.1     
  42 C42            2.2356   -29.0070    -2.8889 C.1     
  43 C43            2.4731   -30.1370    -3.1012 C.1     
  44 C44            2.7517   -31.4623    -3.3504 C.1     
  45 C45            2.9893   -32.5922    -3.5627 C.1     
  46 C46            3.2871   -34.0090    -3.8290 C.3     
  47 C47          -19.7592    -0.2358   -10.4841 C.3     
  48 C48          -18.3483     0.3183   -10.2762 C.3     
  49 C49          -17.7300    -0.3161    -9.0287 C.3     
  50 C50          -16.3191     0.2380    -8.8208 C.3     
  51 C51          -15.7007    -0.3964    -7.5734 C.3     
  52 C52          -14.2898     0.1577    -7.3655 C.3     
  53 C53          -13.6714    -0.4766    -6.1181 C.3     
  54 C54          -12.2605     0.0775    -5.9102 C.3     
  55 C55          -11.6421    -0.5569    -4.6627 C.3     
  56 C56          -10.2312    -0.0028    -4.4548 C.3     
  57 C57           -9.6129    -0.6372    -3.2074 C.3     
  58 C58           -8.2019    -0.0831    -2.9995 C.3     
  59 C59           -7.5836    -0.7174    -1.7521 C.3     
  60 C60           -6.1727    -0.1634    -1.5442 C.3     
  61 H61            0.3256     0.1760     1.5637 H       
  62 H62            1.2414     3.1117    -0.8958 H       
  63 H63            1.2828     2.3529     2.0615 H       
  64 H64            3.5781     3.3642    -0.4563 H       
  65 H65            2.9784    -0.2895     0.7019 H       
  66 H66           -0.7570     0.5183    -1.8938 H       
  67 H67            1.3133     4.8120     1.5473 H       
  68 H68           -0.1696     4.5949     0.5870 H       
  69 H69            0.9592    -0.6216    -0.6822 H       
  70 H70            2.6755     1.1302    -1.1951 H       
  71 H71           -0.6613     5.2684     2.8439 H       
  72 H72           -1.2139     3.7190     2.5992 H       
  73 H73           -1.7997    -0.5559     2.4256 H       
  74 H74           -2.5140     0.9751     1.8651 H       
  75 H75           -4.2780    -0.7141     2.0608 H       
  76 H76           -3.5355    -0.3124    -0.8708 H       
  77 H77           -3.1301    -2.4994     0.0551 H       
  78 H78           -6.2137    -0.6389     0.5565 H       
  79 H79           -4.9389     1.4647     0.9461 H       
  80 H80           -4.8054    -2.4160    -1.2567 H       
  81 H81            3.2972   -34.5610    -2.8892 H       
  82 H82            2.5225   -34.4238    -4.4858 H       
  83 H83            4.2622   -34.0912    -4.3092 H       
  84 H84          -19.7097    -1.3170   -10.6128 H       
  85 H85          -20.3735    -0.0013    -9.6147 H       
  86 H86          -20.1998     0.2161   -11.3728 H       
  87 H87          -17.7341     0.0837   -11.1455 H       
  88 H88          -18.3979     1.3995   -10.1474 H       
  89 H89          -18.3442    -0.0815    -8.1593 H       
  90 H90          -17.6804    -1.3973    -9.1575 H       
  91 H91          -15.7048     0.0034    -9.6902 H       
  92 H92          -16.3687     1.3192    -8.6920 H       
  93 H93          -16.3149    -0.1618    -6.7040 H       
  94 H94          -15.6511    -1.4776    -7.7022 H       
  95 H95          -13.6756    -0.0768    -8.2349 H       
  96 H96          -14.3394     1.2390    -7.2367 H       
  97 H97          -14.2856    -0.2421    -5.2487 H       
  98 H98          -13.6218    -1.5579    -6.2469 H       
  99 H99          -11.6463    -0.1571    -6.7796 H       
 100 H100         -12.3101     1.1587    -5.7814 H       
 101 H101         -12.2563    -0.3223    -3.7934 H       
 102 H102         -11.5925    -1.6381    -4.7915 H       
 103 H103          -9.6170    -0.2374    -5.3242 H       
 104 H104         -10.2808     1.0784    -4.3261 H       
 105 H105         -10.2271    -0.4026    -2.3380 H       
 106 H106          -9.5633    -1.7184    -3.3362 H       
 107 H107          -7.5877    -0.3176    -3.8689 H       
 108 H108          -8.2515     0.9981    -2.8707 H       
 109 H109          -8.1978    -0.4829    -0.8827 H       
 110 H110          -7.5340    -1.7987    -1.8809 H       
 111 H111          -6.2223     0.9179    -1.4154 H       
 112 H112          -5.5585    -0.3979    -2.4136 H       
 113 H113           9.2622    10.2684     8.1280 H       
 114 H114           9.2622    11.0284     8.1280 H       
 115 H115          14.2622    16.0284    13.1280 H       
 116 H116          14.2622    16.7884    13.1280 H       
 117 H117          19.2622    21.7884    18.1280 H       
 118 H118          19.2622    22.5484    18.1280 H       
 119 H119          24.2622    27.5484    23.1280 H       
 120 H120          24.2622    28.3084    23.1280 H       
 121 H121          29.2622    33.3084    28.1280 H       
 122 H122          29.2622    34.0684    28.1280 H       
 123 H123          34.2622    39.0684    33.1280 H       
 124 H124          34.2622    39.8284    33.1280 H       
 125 H125          39.2622    44.8284    38.1280 H       
 126 H126          39.2622    45.5884    38.1280 H       
 127 H127          44.2622    50.5884    43.1280 H       
 128 H128          44.2622    51.3484    43.1280 H       
 129 H129          49.2622    56.3484    48.1280 H       
 130 H130          49.2622    57.1084    48.1280 H       
 131 H131          54.2622    62.1084    53.1280 H       
 132 H132          54.2622    62.8684    53.1280 H       
 133 H133          59.2622    67.8684    58.1280 H       
 134 H134          59.2622    68.6284    58.1280 H       
 135 H135          64.2622    73.6284    63.1280 H       
 136 H136          64.2622    74.3884    63.1280 H       
 137 H137          69.2622    79.3884    68.1280 H       
 138 H138          69.2622    80.1484    68.1280 H       
 139 H139          74.2622    85.1484    73.1280 H       
 140 H140          74.2622    85.9084    73.1280 H       
 141 H141          79.2622    90.9084    78.1280 H       
 142 H142          79.2622    91.6684    78.1280 H       
 143 H143          84.2622    96.6684    83.1280 H       
 144 H144          84.2622    97.4284    83.1280 H       
 145 H145          89.2622   102.4284    88.1280 H       
 146 H146          89.2622   103.1884    88.1280 H       
 147 H147          94.2622   108.1884    93.1280 H       
 148 H148          94.2622   108.9484    93.1280 H       
 149 H149          99.2622   113.9484    98.1280 H       
 150 H150          99.2622   114.7084    98.1280 H       
 151 H151         104.2622   119.7084   103.1280 H       
 152 H152         104.2622   120.4684   103.1280 H       
 153 H153         109.2622   125.4684   108.1280 H       
 154 H154         109.2622   126.2284   108.1280 H       
 155 H155         114.2622   131.2284   113.1280 H       
 156 H156         114.2622   131.9884   113.1280 H       
 157 H157         119.2622   136.9884   118.1280 H       
 158 H158         119.2622   137.7484   118.1280 H       
 159 H159         124.2622   142.7484   123.1280 H       
 160 H160         124.2622   143.5084   123.1280 H       
@<TRIPOS>BOND
   1    1    2 1
   2    1    4 1
   3    2   10 1
   4    2    7 1
   5    2   61 1
   6    3   11 1
   7    3    4 1
   8    3    5 1
   9    3   62 1
  10    4    9 1
  11    4   63 1
  12    5   64 1
  13    6   11 1
  14    6   65 1
  15    7   13 1
  16    8   10 1
  17    8   66 1
  18    9   12 1
  19    9   67 1
  20    9   68 1
  21   10   11 1
  22   10   69 1
  23   11   70 1
  24   12   71 1
  25   12   72 1
  26   13   14 1
  27   13   73 1
  28   13   74 1
  29   14   15 1
  30   14   16 1
  31   14   75 1
  32   15   19 1
  33   15   20 1
  34   15   76 1
  35   16   17 am
  36   16   77 1
  37   17   18 2
  38   17   22 1
  39   19   21 1
  40   19   60 1
  41   19   78 1
  42   20   79 1
  43   21   80 1
  44   22   23 3
  45   23   24 1
  46   24   25 3
  47   25   26 1
  48   26   27 3
  49   27   28 1
  50   28   29 3
  51   29   30 1
  52   30   31 3
  53   31   32 1
  54   32   33 3
  55   33   34 1
  56   34   35 3
  57   35   36 1
  58   36   37 3
  59   37   38 1
  60   38   39 3
  61   39   40 1
  62   40   41 3
  63   41   42 1
  64   42   43 3
  65   43   44 1
  66   44   45 3
  67   45   46 1
  68   46   81 1
  69   46   82 1
  70   46   83 1
  71   47   48 1
  72   47   84 1
  73   47   85 1
  74   47   86 1
  75   48   49 1
  76   48   87 1
  77   48   88 1
  78   49   50 1
  79   49   89 1
  80   49   90 1
  81   50   51 1
  82   50   91 1
  83   50   92 1
  84   51   52 1
  85   51   93 1
  86   51   94 1
  87   52   53 1
  88   52   95 1
  89   52   96 1
  90   53   54 1
  91   53   97 1
  92   53   98 1
  93   54   55 1
  94   54   99 1
  95   54  100 1
  96   55   56 1
  97   55  101 1
  98   55  102 1
  99   56   57 1
 100   56  103 1
 101   56  104 1
 102   57   58 1
 103   57  105 1
 104   57  106 1
 105   58   59 1
 106   58  107 1
 107   58  108 1
 108   59   60 1
 109   59  109 1
 110   59  110 1
 111   60  111 1
 112   60  112 1
 113  113  114 1
 114  115  116 1
 115  117  118 1
 116  119  120 1
 117  121  122 1
 118  123  124 1
 119  125  126 1
 120  127  128 1
 121  129  130 1
 122  131  132 1
 123  133  134 1
 124  135  136 1
 125  137  138 1
 126  139  140 1
 127  141  142 1
 128  143  144 1
 129  145  146 1
 130  147  148 1
 131  149  150 1
 132  151  152 1
 133  153  154 1
 134  155  156 1
 135  157  158 1
 136  159  160 1

#	End of record

