#	Name: ASD01912520
#	Creating user name:	WinNT
#	Creation time:	15. 06. 2019 19:59

#	Modifying user name:	WinNT
#	Modification time:	15. 06. 2019 19:59

#	Program:	/corina/corina34_cracker 3.40 0067  02.08.2006

@<TRIPOS>MOLECULE
ASD01912520
  43   44    0    0    0
SMALL
NO_CHARGES


@<TRIPOS>ATOM
   1 N1            -0.0179     1.4666     0.0101 N.am    
   2 C2             0.0021    -0.0041     0.0020 C.3     
   3 C3             0.9085    -0.4723    -1.1414 C.3     
   4 N4             2.2251     0.1660    -1.0110 N.3     
   5 C5             2.1249     1.6258    -1.1417 C.3     
   6 C6             1.2683     2.1800     0.0017 C.3     
   7 C7            -1.1838     2.1425     0.0194 C.2     
   8 O8            -2.2372     1.5369     0.0211 O.2     
   9 O9            -1.1814     3.4889     0.0267 O.3     
  10 C10            3.5916    -1.8066    -3.6555 C.ar    
  11 N11            2.7441    -1.3074    -2.7790 N.ar    
  12 C12            3.1227    -0.3545    -1.9301 C.ar    
  13 C13            4.4341     0.1120    -1.9795 C.ar    
  14 C14            5.2945    -0.4415    -2.9187 C.ar    
  15 N15            4.8394    -1.3907    -3.7321 N.ar    
  16 O16            6.5800    -0.0204    -3.0054 O.3     
  17 C17            7.4002    -0.6402    -3.9980 C.3     
  18 C18           -2.4739     4.1504     0.0364 C.3     
  19 C19           -3.2505     3.7339     1.2872 C.3     
  20 C20           -2.2707     5.6668     0.0437 C.3     
  21 C21           -3.2625     3.7475    -1.2112 C.3     
  22 H22            0.3920    -0.3702     0.9518 H       
  23 H23           -1.0081    -0.3831    -0.1529 H       
  24 H24            1.0231    -1.5553    -1.0945 H       
  25 H25            0.4625    -0.1944    -2.0963 H       
  26 H26            3.1216     2.0644    -1.0951 H       
  27 H27            1.6619     1.8745    -2.0966 H       
  28 H28            1.0953     3.2449    -0.1535 H       
  29 H29            1.7799     2.0238     0.9514 H       
  30 H30            3.2551    -2.5821    -4.3277 H       
  31 H31            4.7730     0.8845    -1.3052 H       
  32 H32            6.9688    -0.4692    -4.9843 H       
  33 H33            8.4020    -0.2124    -3.9604 H       
  34 H34            7.4553    -1.7118    -3.8063 H       
  35 H35           -2.6887     4.0209     2.1760 H       
  36 H36           -4.2208     4.2305     1.2945 H       
  37 H37           -3.3953     2.6536     1.2820 H       
  38 H38           -1.7174     5.9635    -0.8473 H       
  39 H39           -3.2410     6.1634     0.0511 H       
  40 H40           -1.7089     5.9538     0.9326 H       
  41 H41           -3.4073     2.6671    -1.2164 H       
  42 H42           -4.2328     4.2440    -1.2039 H       
  43 H43           -2.7092     4.0442    -2.1023 H       
@<TRIPOS>BOND
   1    1    2 1
   2    1    6 1
   3    1    7 am
   4    2    3 1
   5    2   22 1
   6    2   23 1
   7    3    4 1
   8    3   24 1
   9    3   25 1
  10    4    5 1
  11    4   12 1
  12    5    6 1
  13    5   26 1
  14    5   27 1
  15    6   28 1
  16    6   29 1
  17    7    8 2
  18    7    9 1
  19    9   18 1
  20   10   11 ar
  21   10   15 ar
  22   10   30 1
  23   11   12 ar
  24   12   13 ar
  25   13   14 ar
  26   13   31 1
  27   14   15 ar
  28   14   16 1
  29   16   17 1
  30   17   32 1
  31   17   33 1
  32   17   34 1
  33   18   19 1
  34   18   21 1
  35   18   20 1
  36   19   35 1
  37   19   36 1
  38   19   37 1
  39   20   38 1
  40   20   39 1
  41   20   40 1
  42   21   41 1
  43   21   42 1
  44   21   43 1

#	End of record

