#	Name: ASD01200055
#	Creating user name:	WinNT
#	Creation time:	15. 06. 2019 19:08

#	Modifying user name:	WinNT
#	Modification time:	15. 06. 2019 19:08

#	Program:	/corina/corina34_cracker 3.40 0067  02.08.2006

@<TRIPOS>MOLECULE
ASD01200055
  37   39    0    0    0
SMALL
NO_CHARGES


@<TRIPOS>ATOM
   1 C1             0.0047     1.3449     0.0049 C.ar    
   2 C2            -0.0696    -0.0443     0.0404 C.ar    
   3 C3            -1.2954    -0.6765     0.0628 C.ar    
   4 C4            -2.4661     0.0708     0.0501 C.ar    
   5 C5            -2.3987     1.4723     0.0143 C.ar    
   6 C6            -1.1529     2.1041    -0.0024 C.ar    
   7 C7            -3.6359     2.2733     0.0001 C.2     
   8 N8            -3.5707     3.6158     0.0995 N.am    
   9 C9            -4.7413     4.3648     0.1976 C.ar    
  10 O10           -4.7155     1.7229    -0.1013 O.2     
  11 S11            1.5769     2.1401    -0.0234 S.3     
  12 N12           -3.7018    -0.5679     0.0722 N.pl3   
  13 C13            1.9085     2.1008    -1.7535 C.2     
  14 N14            1.1789     1.5162    -2.6751 N.2     
  15 N15            1.7157     1.6871    -3.8303 N.2     
  16 C16            2.8103     2.3849    -3.7160 C.2     
  17 N17            2.9698     2.6779    -2.3901 N.pl3   
  18 C18            4.0581     3.4444    -1.7783 C.3     
  19 N19           -5.9075     3.7478     0.3043 N.ar    
  20 C20           -7.0393     4.4191     0.3996 C.ar    
  21 C21           -7.0465     5.7998     0.3912 C.ar    
  22 C22           -5.8441     6.4852     0.2809 C.ar    
  23 C23           -4.6734     5.7537     0.1883 C.ar    
  24 H24            0.8374    -0.6307     0.0500 H       
  25 H25           -1.3450    -1.7550     0.0899 H       
  26 H26           -1.0930     3.1821    -0.0295 H       
  27 H27           -2.7087     4.0606     0.1027 H       
  28 H28           -3.7492    -1.5347     0.0089 H       
  29 H29           -4.5159    -0.0465     0.1511 H       
  30 H30            3.4680     2.6800    -4.5203 H       
  31 H31            3.7894     4.5005    -1.7535 H       
  32 H32            4.2266     3.0884    -0.7620 H       
  33 H33            4.9680     3.3147    -2.3643 H       
  34 H34           -7.9723     3.8817     0.4849 H       
  35 H35           -7.9779     6.3410     0.4693 H       
  36 H36           -5.8228     7.5649     0.2716 H       
  37 H37           -3.7205     6.2545     0.1013 H       
@<TRIPOS>BOND
   1    1    2 ar
   2    1   11 1
   3    1    6 ar
   4    2    3 ar
   5    2   24 1
   6    3    4 ar
   7    3   25 1
   8    4    5 ar
   9    4   12 1
  10    5    6 ar
  11    5    7 1
  12    6   26 1
  13    7    8 am
  14    7   10 2
  15    8    9 1
  16    8   27 1
  17    9   19 ar
  18    9   23 ar
  19   11   13 1
  20   12   28 1
  21   12   29 1
  22   13   14 2
  23   13   17 1
  24   14   15 1
  25   15   16 2
  26   16   17 1
  27   16   30 1
  28   17   18 1
  29   18   31 1
  30   18   32 1
  31   18   33 1
  32   19   20 ar
  33   20   21 ar
  34   20   34 1
  35   21   22 ar
  36   21   35 1
  37   22   23 ar
  38   22   36 1
  39   23   37 1

#	End of record

