#	Name: ASD01916615
#	Creating user name:	WinNT
#	Creation time:	15. 06. 2019 20:07

#	Modifying user name:	WinNT
#	Modification time:	15. 06. 2019 20:07

#	Program:	/corina/corina34_cracker 3.40 0067  02.08.2006

@<TRIPOS>MOLECULE
ASD01916615
  22   23    0    0    0
SMALL
NO_CHARGES


@<TRIPOS>ATOM
   1 O1            -0.0161     1.3381     0.0094 O.3     
   2 C2             0.0021    -0.0041     0.0020 C.2     
   3 N3             1.2264    -0.4381    -0.0120 N.2     
   4 C4             2.0701     0.6294    -0.0143 C.ar    
   5 C5             1.2620     1.7767    -0.0004 C.ar    
   6 C6             1.8477     3.0332     0.0003 C.ar    
   7 C7             3.2220     3.1511    -0.0126 C.ar    
   8 C8             4.0251     2.0194    -0.0263 C.ar    
   9 C9             3.4592     0.7626    -0.0269 C.ar    
  10 Cl10           5.7528     2.1876    -0.0430 Cl      
  11 C11           -1.2228    -0.8820     0.0090 C.3     
  12 C12           -1.6235    -1.1868     1.4538 C.3     
  13 C13           -2.8199    -2.0444     1.4606 C.1     
  14 C14           -3.7741    -2.7283     1.4660 C.1     
  15 H15            1.2290     3.9183     0.0106 H       
  16 H16            3.6761     4.1309    -0.0123 H       
  17 H17            4.0881    -0.1153    -0.0376 H       
  18 H18           -2.0414    -0.3675    -0.4943 H       
  19 H19           -1.0046    -1.8142    -0.5120 H       
  20 H20           -0.8049    -1.7013     1.9571 H       
  21 H21           -1.8417    -0.2546     1.9747 H       
  22 H22           -4.6275    -3.3400     1.4709 H       
@<TRIPOS>BOND
   1    1    2 1
   2    1    5 1
   3    2    3 2
   4    2   11 1
   5    3    4 1
   6    4    5 ar
   7    4    9 ar
   8    5    6 ar
   9    6    7 ar
  10    6   15 1
  11    7    8 ar
  12    7   16 1
  13    8    9 ar
  14    8   10 1
  15    9   17 1
  16   11   12 1
  17   11   18 1
  18   11   19 1
  19   12   13 1
  20   12   20 1
  21   12   21 1
  22   13   14 3
  23   14   22 1

#	End of record

