#	Name: ASD02560065
#	Creating user name:	WinNT
#	Creation time:	15. 06. 2019 20:24

#	Modifying user name:	WinNT
#	Modification time:	15. 06. 2019 20:24

#	Program:	/corina/corina34_cracker 3.40 0067  02.08.2006

@<TRIPOS>MOLECULE
ASD02560065
  45   47    0    0    0
SMALL
NO_CHARGES


@<TRIPOS>ATOM
   1 C1             0.0316     1.3836     0.0144 C.ar    
   2 C2             0.0378     0.0064     0.0068 C.ar    
   3 C3             1.2432    -0.6849    -0.0134 C.ar    
   4 C4             2.4469     0.0095    -0.0260 C.ar    
   5 C5             2.4497     1.3868    -0.0180 C.ar    
   6 C6             1.2398     2.0860     0.0018 C.ar    
   7 C7            -1.2644    -0.7521     0.0209 C.3     
   8 C8             3.7510    -0.7454    -0.0479 C.3     
   9 O9             1.2449    -2.0426    -0.0204 O.3     
  10 C10            1.2292    -2.6727    -1.2203 C.ar    
  11 C11            1.2301    -4.0658    -1.2876 C.ar    
  12 C12            1.2132    -4.6661    -2.5337 C.ar    
  13 N13            1.1968    -3.9060    -3.6181 N.ar    
  14 C14            1.1964    -2.5847    -3.5227 C.ar    
  15 N15            1.2071    -1.9727    -2.3481 N.ar    
  16 N16            1.1789    -1.8237    -4.6808 N.pl3   
  17 C17            1.0602    -0.4374    -4.6020 C.ar    
  18 C18            1.7224     0.3695    -5.5222 C.ar    
  19 C19            1.6073     1.7393    -5.4473 C.ar    
  20 C20            0.8240     2.3195    -4.4452 C.ar    
  21 C21            0.1601     1.5058    -3.5224 C.ar    
  22 C22            0.2751     0.1366    -3.6067 C.ar    
  23 Br23           1.2545    -5.1102     0.2886 Br      
  24 C24            1.2140    -6.1681    -2.6560 C.3     
  25 O25           -0.1329    -6.6451    -2.6753 O.3     
  26 C26            1.2380     3.5179     0.0097 C.1     
  27 N27            1.2366     4.6539     0.0160 N.1     
  28 C28            0.7023     3.7440    -4.3639 C.1     
  29 N29            0.6058     4.8740    -4.2994 N.1     
  30 H30           -0.9057     1.9201     0.0256 H       
  31 H31            3.3856     1.9258    -0.0271 H       
  32 H32           -1.5927    -0.9293    -1.0033 H       
  33 H33           -1.1233    -1.7068     0.5275 H       
  34 H34           -2.0189    -0.1687     0.5485 H       
  35 H35            4.0514    -0.9218    -1.0807 H       
  36 H36            4.5183    -0.1600     0.4588 H       
  37 H37            3.6265    -1.7005     0.4625 H       
  38 H38            1.2494    -2.2560    -5.5463 H       
  39 H39            2.3276    -0.0794    -6.2959 H       
  40 H40            2.1218     2.3649    -6.1616 H       
  41 H41           -0.4458     1.9507    -2.7470 H       
  42 H42           -0.2378    -0.4927    -2.8944 H       
  43 H43            1.7151    -6.4572    -3.5798 H       
  44 H44            1.7408    -6.6016    -1.8059 H       
  45 H45           -0.2087    -7.6061    -2.7524 H       
@<TRIPOS>BOND
   1    1    2 ar
   2    1    6 ar
   3    1   30 1
   4    2    3 ar
   5    2    7 1
   6    3    4 ar
   7    3    9 1
   8    4    5 ar
   9    4    8 1
  10    5    6 ar
  11    5   31 1
  12    6   26 1
  13    7   32 1
  14    7   33 1
  15    7   34 1
  16    8   35 1
  17    8   36 1
  18    8   37 1
  19    9   10 1
  20   10   11 ar
  21   10   15 ar
  22   11   12 ar
  23   11   23 1
  24   12   13 ar
  25   12   24 1
  26   13   14 ar
  27   14   15 ar
  28   14   16 1
  29   16   17 1
  30   16   38 1
  31   17   18 ar
  32   17   22 ar
  33   18   19 ar
  34   18   39 1
  35   19   20 ar
  36   19   40 1
  37   20   21 ar
  38   20   28 1
  39   21   22 ar
  40   21   41 1
  41   22   42 1
  42   24   25 1
  43   24   43 1
  44   24   44 1
  45   25   45 1
  46   26   27 3
  47   28   29 3

#	End of record

