#	Name: ASD02030133
#	Creating user name:	WinNT
#	Creation time:	15. 06. 2019 20:14

#	Modifying user name:	WinNT
#	Modification time:	15. 06. 2019 20:14

#	Program:	/corina/corina34_cracker 3.40 0067  02.08.2006

@<TRIPOS>MOLECULE
ASD02030133
  59   63    0    0    0
SMALL
NO_CHARGES


@<TRIPOS>ATOM
   1 N1            -0.3617     1.4606    -0.3780 N.am    
   2 C2            -0.3778    -0.0084    -0.3370 C.3     
   3 C3            -1.1635    -0.4554     0.9020 C.3     
   4 N4            -2.4423     0.2681     0.9334 N.am    
   5 C5            -2.4262     1.7371     0.8924 C.3     
   6 C6            -1.6402     2.1843    -0.3409 C.3     
   7 C7             0.8050     2.1322    -0.4428 C.2     
   8 C8             2.0858     1.3994    -0.3533 C.2     
   9 N9             3.2835     1.9397    -0.2877 N.2     
  10 N10            2.2316     0.0620    -0.3186 N.2     
  11 C11            3.5138    -0.1874    -0.2380 C.2     
  12 N12            4.1591     0.9969    -0.2195 N.pl3   
  13 O13            0.8042     3.3407    -0.5749 O.2     
  14 C14           -3.6090    -0.4036     0.9983 C.2     
  15 C15           -3.6155    -1.8810     0.9436 C.ar    
  16 O16           -4.6559     0.2054     1.1017 O.2     
  17 C17           -1.3779     3.6897    -0.2646 C.3     
  18 C18           -2.4407     1.8624    -1.6044 C.3     
  19 C19            5.5473     1.1722    -0.1401 C.ar    
  20 C20            6.0874     2.4513    -0.1294 C.ar    
  21 C21            7.4559     2.6209    -0.0511 C.ar    
  22 C22            8.2879     1.5185     0.0162 C.ar    
  23 C23            7.7530     0.2433     0.0058 C.ar    
  24 C24            6.3850     0.0674    -0.0661 C.ar    
  25 C25           -2.7224    -2.6153     1.7259 C.ar    
  26 C26           -4.5183    -2.5477     0.1141 C.ar    
  27 C27           -4.5190    -3.9267     0.0678 C.ar    
  28 C28           -3.6278    -4.6483     0.8416 C.ar    
  29 C29           -2.7336    -3.9935     1.6702 C.ar    
  30 C30           -5.4932    -4.6483    -0.8274 C.3     
  31 C31           -4.9145    -5.5531    -1.9171 C.3     
  32 C32           -5.5870    -6.1691    -0.6886 C.3     
  33 H33           -0.8603    -0.3942    -1.2350 H       
  34 H34            0.6438    -0.3839    -0.2775 H       
  35 H35           -1.3511    -1.5279     0.8489 H       
  36 H36           -0.5910    -0.2258     1.8007 H       
  37 H37           -3.4477     2.1126     0.8330 H       
  38 H38           -1.9436     2.1228     1.7904 H       
  39 H39            3.9719    -1.1643    -0.1913 H       
  40 H40           -0.7137     3.9007     0.5735 H       
  41 H41           -0.9115     4.0246    -1.1911 H       
  42 H42           -2.3216     4.2162    -0.1218 H       
  43 H43           -3.3954     2.3876    -1.5734 H       
  44 H44           -1.8786     2.1820    -2.4819 H       
  45 H45           -2.6185     0.7883    -1.6582 H       
  46 H46            5.4382     3.3128    -0.1827 H       
  47 H47            7.8766     3.6156    -0.0428 H       
  48 H48            9.3577     1.6536     0.0767 H       
  49 H49            8.4054    -0.6158     0.0586 H       
  50 H50            5.9677    -0.9288    -0.0738 H       
  51 H51           -2.0240    -2.1055     2.3730 H       
  52 H52           -5.2150    -1.9855    -0.4899 H       
  53 H53           -3.6330    -5.7276     0.8022 H       
  54 H54           -2.0404    -4.5627     2.2717 H       
  55 H55           -6.4102    -4.1061    -1.0580 H       
  56 H56           -5.4510    -5.6064    -2.8644 H       
  57 H57           -3.8292    -5.6264    -1.9865 H       
  58 H58           -4.9441    -6.6477     0.0501 H       
  59 H59           -6.5660    -6.6277    -0.8277 H       
@<TRIPOS>BOND
   1    1    2 1
   2    1    7 am
   3    1    6 1
   4    2    3 1
   5    2   33 1
   6    2   34 1
   7    3    4 1
   8    3   35 1
   9    3   36 1
  10    4    5 1
  11    4   14 am
  12    5    6 1
  13    5   37 1
  14    5   38 1
  15    6   17 1
  16    6   18 1
  17    7    8 1
  18    7   13 2
  19    8    9 2
  20    8   10 1
  21    9   12 1
  22   10   11 2
  23   11   12 1
  24   11   39 1
  25   12   19 1
  26   14   15 1
  27   14   16 2
  28   15   26 ar
  29   15   25 ar
  30   17   40 1
  31   17   41 1
  32   17   42 1
  33   18   43 1
  34   18   44 1
  35   18   45 1
  36   19   20 ar
  37   19   24 ar
  38   20   21 ar
  39   20   46 1
  40   21   22 ar
  41   21   47 1
  42   22   23 ar
  43   22   48 1
  44   23   24 ar
  45   23   49 1
  46   24   50 1
  47   25   29 ar
  48   25   51 1
  49   26   27 ar
  50   26   52 1
  51   27   28 ar
  52   27   30 1
  53   28   29 ar
  54   28   53 1
  55   29   54 1
  56   30   31 1
  57   30   32 1
  58   30   55 1
  59   31   32 1
  60   31   56 1
  61   31   57 1
  62   32   58 1
  63   32   59 1

#	End of record

