#	Name: ASD01913686
#	Creating user name:	WinNT
#	Creation time:	15. 06. 2019 20:02

#	Modifying user name:	WinNT
#	Modification time:	15. 06. 2019 20:02

#	Program:	/corina/corina34_cracker 3.40 0067  02.08.2006

@<TRIPOS>MOLECULE
ASD01913686
  50   51    0    0    0
SMALL
NO_CHARGES


@<TRIPOS>ATOM
   1 C1            -0.0187     1.5258     0.0104 C.3     
   2 C2             0.0021    -0.0041     0.0020 C.3     
   3 O3            -1.3386    -0.4987     0.0122 O.3     
   4 C4            -1.4978    -1.8443     0.0065 C.ar    
   5 N5            -0.4305    -2.6277    -0.0079 N.ar    
   6 C6            -0.5333    -3.9403    -0.0140 C.ar    
   7 C7            -1.7856    -4.5552    -0.0058 C.ar    
   8 C8            -2.9369    -3.7537     0.0095 C.ar    
   9 C9            -2.7809    -2.3831     0.0215 C.ar    
  10 C10           -1.8976    -6.0271    -0.0136 C.2     
  11 N11           -0.7849    -6.7875    -0.0288 N.am    
  12 O12           -2.9935    -6.5535    -0.0064 O.2     
  13 C13           -0.8960    -8.2482    -0.0365 C.3     
  14 C14            1.4167     2.0553    -0.0004 C.3     
  15 C15            1.3960     3.5852     0.0080 C.3     
  16 C16            0.3631    -8.8521    -0.6618 C.3     
  17 C17           -1.0464    -8.7559     1.3989 C.3     
  18 C18            0.2470   -10.3777    -0.6699 C.3     
  19 C19            1.5061   -10.9816    -1.2952 C.3     
  20 C20            1.6565   -10.4740    -2.7306 C.3     
  21 C21            1.7725    -8.9484    -2.7225 C.3     
  22 C22            0.5134    -8.3445    -2.0973 C.3     
  23 H23           -0.5459     1.8868    -0.8726 H       
  24 H24           -0.5289     1.8773     0.9072 H       
  25 H25            0.5123    -0.3556    -0.8948 H       
  26 H26            0.5293    -0.3651     0.8851 H       
  27 H27            0.3603    -4.5467    -0.0258 H       
  28 H28           -3.9209    -4.1987     0.0161 H       
  29 H29           -3.6450    -1.7353     0.0338 H       
  30 H30            0.0895    -6.3675    -0.0346 H       
  31 H31           -1.7685    -8.5432    -0.6195 H       
  32 H32            1.9439     1.6943     0.8826 H       
  33 H33            1.9269     1.7038    -0.8972 H       
  34 H34            0.8858     3.9367     0.9048 H       
  35 H35            2.4186     3.9625     0.0002 H       
  36 H36            0.8688     3.9463    -0.8751 H       
  37 H37            1.2356    -8.5572    -0.0788 H       
  38 H38           -0.1739    -8.4609     1.9819 H       
  39 H39           -1.9433    -8.3256     1.8444 H       
  40 H40           -1.1290    -9.8427     1.3932 H       
  41 H41            0.1399   -10.7394     0.3528 H       
  42 H42           -0.6255   -10.6727    -1.2529 H       
  43 H43            2.3786   -10.6867    -0.7122 H       
  44 H44            1.4235   -12.0685    -1.3009 H       
  45 H45            2.5535   -10.9042    -3.1761 H       
  46 H46            0.7840   -10.7689    -3.3136 H       
  47 H47            2.6450    -8.6535    -2.1396 H       
  48 H48            1.8796    -8.5867    -3.7452 H       
  49 H49           -0.3591    -8.6394    -2.6802 H       
  50 H50            0.5961    -7.2576    -2.0915 H       
@<TRIPOS>BOND
   1    1    2 1
   2    1   14 1
   3    1   23 1
   4    1   24 1
   5    2    3 1
   6    2   25 1
   7    2   26 1
   8    3    4 1
   9    4    5 ar
  10    4    9 ar
  11    5    6 ar
  12    6    7 ar
  13    6   27 1
  14    7    8 ar
  15    7   10 1
  16    8    9 ar
  17    8   28 1
  18    9   29 1
  19   10   11 am
  20   10   12 2
  21   11   13 1
  22   11   30 1
  23   13   16 1
  24   13   17 1
  25   13   31 1
  26   14   15 1
  27   14   32 1
  28   14   33 1
  29   15   34 1
  30   15   35 1
  31   15   36 1
  32   16   18 1
  33   16   22 1
  34   16   37 1
  35   17   38 1
  36   17   39 1
  37   17   40 1
  38   18   19 1
  39   18   41 1
  40   18   42 1
  41   19   20 1
  42   19   43 1
  43   19   44 1
  44   20   21 1
  45   20   45 1
  46   20   46 1
  47   21   22 1
  48   21   47 1
  49   21   48 1
  50   22   49 1
  51   22   50 1

#	End of record

