#	Name: ASD01148710
#	Creating user name:	WinNT
#	Creation time:	15. 06. 2019 19:03

#	Modifying user name:	WinNT
#	Modification time:	15. 06. 2019 19:03

#	Program:	/corina/corina34_cracker 3.40 0067  02.08.2006

@<TRIPOS>MOLECULE
ASD01148710
  66   70    0    0    0
SMALL
NO_CHARGES


@<TRIPOS>ATOM
   1 C1            -0.6959     0.4109     0.0255 C.2     
   2 C2            -0.3670    -1.0639     0.1044 C.3     
   3 C3             0.6679    -1.2676     1.2145 C.3     
   4 C4             0.4499     1.3906    -0.0932 C.3     
   5 C5             1.4657     1.0988     1.0179 C.3     
   6 C6             2.6905     1.9930     0.8087 C.3     
   7 C7             3.7315     1.7080     1.8917 C.3     
   8 C8             4.1610     0.2419     1.8035 C.3     
   9 C9             5.1623    -0.0784     2.8968 C.3     
  10 C10            6.5015     0.6620     2.8178 C.3     
  11 C11            7.4553    -0.2590     3.6276 C.3     
  12 C12            6.8342    -1.6775     3.5845 C.3     
  13 C13            5.6049    -1.5526     2.6902 C.3     
  14 C14            6.0029    -1.7736     1.2295 C.3     
  15 C15            4.4223    -2.4352     3.0389 C.3     
  16 C16            3.3087    -2.1303     2.0226 C.3     
  17 C17            2.9345    -0.6523     2.0342 C.3     
  18 C18            1.8828    -0.3715     0.9579 C.3     
  19 O19           -1.8408     0.7942     0.0514 O.2     
  20 O20            7.7625    -2.6076     3.0230 O.3     
  21 C21            3.7834    -2.5078     0.6430 C.ar    
  22 C22            4.0862    -3.8258     0.3543 C.ar    
  23 C23            4.5216    -4.1752    -0.9089 C.ar    
  24 C24            4.6552    -3.2009    -1.8900 C.ar    
  25 C25            4.3501    -1.8778    -1.5965 C.ar    
  26 C26            3.9099    -1.5362    -0.3329 C.ar    
  27 N27            5.0956    -3.5506    -3.1684 N.pl3   
  28 C28            5.5366    -4.9207    -3.4419 C.3     
  29 C29            5.1166    -2.5475    -4.2359 C.3     
  30 H30           -1.2696    -1.6297     0.3353 H       
  31 H31            0.0443    -1.4000    -0.8475 H       
  32 H32            0.2238    -1.0100     2.1760 H       
  33 H33            0.9834    -2.3108     1.2293 H       
  34 H34            0.9290     1.2765    -1.0656 H       
  35 H35            0.0734     2.4079     0.0139 H       
  36 H36            1.0176     1.3152     1.9876 H       
  37 H37            3.1230     1.7917    -0.1714 H       
  38 H38            2.3888     3.0391     0.8625 H       
  39 H39            4.5986     2.3512     1.7416 H       
  40 H40            3.2986     1.9022     2.8730 H       
  41 H41            4.6004     0.0414     0.8263 H       
  42 H42            4.7089     0.0617     3.8781 H       
  43 H43            6.8344     0.7481     1.7835 H       
  44 H44            6.4270     1.6448     3.2833 H       
  45 H45            8.4440    -0.2695     3.1689 H       
  46 H46            7.5244     0.0879     4.6586 H       
  47 H47            6.5421    -1.9924     4.5863 H       
  48 H48            7.0673    -1.5723     1.1086 H       
  49 H49            5.7941    -2.8058     0.9482 H       
  50 H50            5.4309    -1.1002     0.5912 H       
  51 H51            4.7096    -3.4844     2.9705 H       
  52 H52            4.0758    -2.2096     4.0475 H       
  53 H53            2.4277    -2.7222     2.2707 H       
  54 H54            2.4996    -0.4081     3.0034 H       
  55 H55            2.2997    -0.5920    -0.0248 H       
  56 H56            8.5824    -2.6982     3.5277 H       
  57 H57            3.9825    -4.5828     1.1176 H       
  58 H58            4.7582    -5.2047    -1.1337 H       
  59 H59            4.4529    -1.1178    -2.3570 H       
  60 H60            3.6680    -0.5085    -0.1054 H       
  61 H61            4.6857    -5.5175    -3.7703 H       
  62 H62            6.2955    -4.9087    -4.2243 H       
  63 H63            5.9567    -5.3550    -2.5348 H       
  64 H64            4.8421    -1.5754    -3.8264 H       
  65 H65            6.1180    -2.4923    -4.6630 H       
  66 H66            4.4054    -2.8285    -5.0126 H       
@<TRIPOS>BOND
   1    1    2 1
   2    1    4 1
   3    1   19 2
   4    2    3 1
   5    2   30 1
   6    2   31 1
   7    3   18 1
   8    3   32 1
   9    3   33 1
  10    4    5 1
  11    4   34 1
  12    4   35 1
  13    5    6 1
  14    5   18 1
  15    5   36 1
  16    6    7 1
  17    6   37 1
  18    6   38 1
  19    7    8 1
  20    7   39 1
  21    7   40 1
  22    8    9 1
  23    8   17 1
  24    8   41 1
  25    9   10 1
  26    9   13 1
  27    9   42 1
  28   10   11 1
  29   10   43 1
  30   10   44 1
  31   11   12 1
  32   11   45 1
  33   11   46 1
  34   12   13 1
  35   12   20 1
  36   12   47 1
  37   13   14 1
  38   13   15 1
  39   14   48 1
  40   14   49 1
  41   14   50 1
  42   15   16 1
  43   15   51 1
  44   15   52 1
  45   16   21 1
  46   16   17 1
  47   16   53 1
  48   17   18 1
  49   17   54 1
  50   18   55 1
  51   20   56 1
  52   21   22 ar
  53   21   26 ar
  54   22   23 ar
  55   22   57 1
  56   23   24 ar
  57   23   58 1
  58   24   25 ar
  59   24   27 1
  60   25   26 ar
  61   25   59 1
  62   26   60 1
  63   27   28 1
  64   27   29 1
  65   28   61 1
  66   28   62 1
  67   28   63 1
  68   29   64 1
  69   29   65 1
  70   29   66 1

#	End of record

