#	Name: ASD02448011
#	Creating user name:	WinNT
#	Creation time:	15. 06. 2019 20:21

#	Modifying user name:	WinNT
#	Modification time:	15. 06. 2019 20:21

#	Program:	/corina/corina34_cracker 3.40 0067  02.08.2006

@<TRIPOS>MOLECULE
ASD02448011
  80   86    0    0    0
SMALL
NO_CHARGES


@<TRIPOS>ATOM
   1 C1             3.3181    -7.4083    -1.0997 C.ar    
   2 C2             2.8027    -6.2967    -0.4639 C.ar    
   3 C3             2.1988    -5.2903    -1.2054 C.ar    
   4 C4             2.1125    -5.4016    -2.5865 C.ar    
   5 C5             2.6277    -6.5129    -3.2231 C.ar    
   6 C6             3.2324    -7.5198    -2.4816 C.ar    
   7 N7             3.7547    -8.6453    -3.1261 N.am    
   8 C8             4.8252    -9.5365    -2.6602 C.3     
   9 C9             5.0895   -10.6294    -3.6449 C.2     
  10 N10            4.3206   -10.5946    -4.7424 N.am    
  11 S11            3.2998    -9.2878    -4.5970 S.o2    
  12 O12            5.9341   -11.4811    -3.4653 O.2     
  13 O13            1.9822    -9.7994    -4.4498 O.2     
  14 O14            3.6786    -8.3471    -5.5923 O.2     
  15 N15            1.6748    -4.1603    -0.5585 N.pl3   
  16 C16            0.7437    -4.1584     0.4450 C.2     
  17 C17            2.0020    -2.8654    -0.8079 C.2     
  18 N18            1.3135    -2.0956    -0.0119 N.2     
  19 C19            0.5270    -2.8581     0.7745 C.2     
  20 C20           -0.4087    -2.3648     1.8147 C.ar    
  21 C21           -0.5335    -0.9959     2.0515 C.ar    
  22 C22           -1.1701    -3.2670     2.5545 C.ar    
  23 C23           -2.0393    -2.8032     3.5213 C.ar    
  24 C24           -2.1557    -1.4442     3.7568 C.ar    
  25 C25           -1.4060    -0.5425     3.0210 C.ar    
  26 Cl26          -3.2514    -0.8681     4.9739 Cl      
  27 Cl27           0.4066     0.1355     1.1296 Cl      
  28 C28            2.9983    -2.3956    -1.8363 C.3     
  29 C29            4.3370    -2.1821    -1.1780 C.ar    
  30 C30            5.2086    -3.2457    -1.0281 C.ar    
  31 C31            4.6920    -0.9222    -0.7310 C.ar    
  32 C32            5.9169    -0.7209    -0.1278 C.ar    
  33 C33            6.7966    -1.7898     0.0306 C.ar    
  34 C34            6.4360    -3.0558    -0.4263 C.ar    
  35 C35            8.1150    -1.5795     0.6785 C.ar    
  36 C36            9.0041    -2.6454     0.8418 C.ar    
  37 C37            8.4888    -0.3153     1.1285 C.ar    
  38 N38            9.6592    -0.1271     1.7034 N.ar    
  39 C39           10.5165    -1.1144     1.8762 C.ar    
  40 C40           10.2213    -2.3974     1.4522 C.ar    
  41 C41           11.8408    -0.8390     2.5406 C.3     
  42 C42           12.5627     0.2839     1.7931 C.3     
  43 C43           13.8480     0.6489     2.5386 C.3     
  44 C44           14.5699     1.7718     1.7910 C.3     
  45 C45           14.9165     1.3023     0.3767 C.3     
  46 C46           13.6312     0.9373    -0.3688 C.3     
  47 C47           12.9093    -0.1856     0.3787 C.3     
  48 H48            3.7918    -8.1891    -0.5232 H       
  49 H49            2.8689    -6.2101     0.6106 H       
  50 H50            1.6420    -4.6188    -3.1629 H       
  51 H51            2.5603    -6.5995    -4.2975 H       
  52 H52            5.7366    -8.9558    -2.5182 H       
  53 H53            4.5330    -9.9776    -1.7072 H       
  54 H54            4.3513   -11.2188    -5.4843 H       
  55 H55            0.2726    -5.0229     0.8889 H       
  56 H56           -1.0806    -4.3277     2.3717 H       
  57 H57           -2.6300    -3.5021     4.0949 H       
  58 H58           -1.5004     0.5169     3.2085 H       
  59 H59            3.0943    -3.1477    -2.6194 H       
  60 H60            2.6547    -1.4580    -2.2733 H       
  61 H61            4.9279    -4.2266    -1.3822 H       
  62 H62            4.0095    -0.0943    -0.8546 H       
  63 H63            6.1932     0.2633     0.2206 H       
  64 H64            7.1140    -3.8878    -0.3057 H       
  65 H65            8.7477    -3.6375     0.5007 H       
  66 H66            7.8133     0.5182     1.0046 H       
  67 H67           10.9313    -3.1978     1.5995 H       
  68 H68           11.6729    -0.5377     3.5746 H       
  69 H69           12.4523    -1.7410     2.5197 H       
  70 H70           11.9144     1.1584     1.7370 H       
  71 H71           13.6011     0.9834     3.5462 H       
  72 H72           14.4963    -0.2256     2.5947 H       
  73 H73           13.9216     2.6463     1.7349 H       
  74 H74           15.4855     2.0318     2.3221 H       
  75 H75           15.4308     2.1023    -0.1559 H       
  76 H76           15.5647     0.4278     0.4328 H       
  77 H77           12.9829     1.8118    -0.4249 H       
  78 H78           13.8781     0.6029    -1.3764 H       
  79 H79           13.5576    -1.0600     0.4348 H       
  80 H80           11.9937    -0.4455    -0.1524 H       
@<TRIPOS>BOND
   1    1    2 ar
   2    1    6 ar
   3    1   48 1
   4    2    3 ar
   5    2   49 1
   6    3    4 ar
   7    3   15 1
   8    4    5 ar
   9    4   50 1
  10    5    6 ar
  11    5   51 1
  12    6    7 1
  13    7    8 1
  14    7   11 am
  15    8    9 1
  16    8   52 1
  17    8   53 1
  18    9   10 am
  19    9   12 2
  20   10   11 am
  21   10   54 1
  22   11   13 2
  23   11   14 2
  24   15   16 1
  25   15   17 1
  26   16   19 2
  27   16   55 1
  28   17   18 2
  29   17   28 1
  30   18   19 1
  31   19   20 1
  32   20   21 ar
  33   20   22 ar
  34   21   27 1
  35   21   25 ar
  36   22   23 ar
  37   22   56 1
  38   23   24 ar
  39   23   57 1
  40   24   25 ar
  41   24   26 1
  42   25   58 1
  43   28   29 1
  44   28   59 1
  45   28   60 1
  46   29   30 ar
  47   29   31 ar
  48   30   34 ar
  49   30   61 1
  50   31   32 ar
  51   31   62 1
  52   32   33 ar
  53   32   63 1
  54   33   34 ar
  55   33   35 1
  56   34   64 1
  57   35   36 ar
  58   35   37 ar
  59   36   40 ar
  60   36   65 1
  61   37   38 ar
  62   37   66 1
  63   38   39 ar
  64   39   40 ar
  65   39   41 1
  66   40   67 1
  67   41   42 1
  68   41   68 1
  69   41   69 1
  70   42   43 1
  71   42   47 1
  72   42   70 1
  73   43   44 1
  74   43   71 1
  75   43   72 1
  76   44   45 1
  77   44   73 1
  78   44   74 1
  79   45   46 1
  80   45   75 1
  81   45   76 1
  82   46   47 1
  83   46   77 1
  84   46   78 1
  85   47   79 1
  86   47   80 1

#	End of record

