#	Name: ASD05213049
#	Creating user name:	WinNT
#	Creation time:	15. 06. 2019 20:57

#	Modifying user name:	WinNT
#	Modification time:	15. 06. 2019 20:57

#	Program:	/corina/corina34_cracker 3.40 0067  02.08.2006

@<TRIPOS>MOLECULE
ASD05213049
  50   53    0    0    0
SMALL
NO_CHARGES


@<TRIPOS>ATOM
   1 C1            -0.0158     1.3143     0.0093 C.ar    
   2 N2             0.0021    -0.0041     0.0020 N.ar    
   3 C3             1.1331    -0.6822    -0.0125 C.ar    
   4 C4             2.3499    -0.0274    -0.0202 C.ar    
   5 C5             2.3711     1.3591    -0.0129 C.ar    
   6 C6             1.1622     2.0375     0.0019 C.ar    
   7 C7             3.6375    -0.8102    -0.0357 C.3     
   8 N8             4.0423    -1.0569    -1.4219 N.pl3   
   9 C9             4.8538    -0.1518    -2.0752 C.2     
  10 C10            3.5857    -2.2643    -2.1145 C.3     
  11 C11            2.2604    -1.9759    -2.8224 C.3     
  12 N12            5.3081     0.9373    -1.5567 N.2     
  13 C13            6.0921     1.7214    -2.3236 C.ar    
  14 C14            6.2907     1.2027    -3.6064 C.ar    
  15 S15            5.4207    -0.3244    -3.7304 S.3     
  16 C16            6.7062     2.9481    -1.9937 C.ar    
  17 C17            7.4779     3.6091    -2.9156 C.ar    
  18 C18            7.6666     3.0835    -4.1853 C.ar    
  19 C19            7.0769     1.8875    -4.5296 C.ar    
  20 C20            1.7835    -3.2370    -3.5457 C.3     
  21 C21            0.3998    -2.9866    -4.1487 C.3     
  22 C22           -0.0771    -4.2476    -4.8721 C.3     
  23 C23            0.9093    -4.5997    -5.9874 C.3     
  24 C24            2.2929    -4.8500    -5.3844 C.3     
  25 C25            2.7698    -3.5890    -4.6611 C.3     
  26 H26           -0.9618     1.8353     0.0166 H       
  27 H27            1.1080    -1.7619    -0.0180 H       
  28 H28            3.3072     1.8977    -0.0183 H       
  29 H29            1.1411     3.1172     0.0075 H       
  30 H30            4.4149    -0.2410     0.4740 H       
  31 H31            3.4904    -1.7620     0.4747 H       
  32 H32            4.3321    -2.5658    -2.8494 H       
  33 H33            3.4438    -3.0668    -1.3905 H       
  34 H34            1.5140    -1.6744    -2.0874 H       
  35 H35            2.4022    -1.1735    -3.5463 H       
  36 H36            6.5675     3.3697    -1.0091 H       
  37 H37            7.9424     4.5474    -2.6503 H       
  38 H38            8.2754     3.6122    -4.9038 H       
  39 H39            7.2249     1.4792    -5.5184 H       
  40 H40            1.7268    -4.0630    -2.8367 H       
  41 H41           -0.3029    -2.7358    -3.3541 H       
  42 H42            0.4565    -2.1606    -4.8577 H       
  43 H43           -0.1338    -5.0737    -4.1631 H       
  44 H44           -1.0628    -4.0693    -5.3017 H       
  45 H45            0.5695    -5.4981    -6.5027 H       
  46 H46            0.9660    -3.7736    -6.6964 H       
  47 H47            2.2363    -5.6760    -4.6754 H       
  48 H48            2.9957    -5.1008    -6.1790 H       
  49 H49            2.8265    -2.7630    -5.3700 H       
  50 H50            3.7556    -3.7673    -4.2314 H       
@<TRIPOS>BOND
   1    1    2 ar
   2    1    6 ar
   3    1   26 1
   4    2    3 ar
   5    3    4 ar
   6    3   27 1
   7    4    5 ar
   8    4    7 1
   9    5    6 ar
  10    5   28 1
  11    6   29 1
  12    7    8 1
  13    7   30 1
  14    7   31 1
  15    8    9 1
  16    8   10 1
  17    9   12 2
  18    9   15 1
  19   10   11 1
  20   10   32 1
  21   10   33 1
  22   11   20 1
  23   11   34 1
  24   11   35 1
  25   12   13 1
  26   13   14 ar
  27   13   16 ar
  28   14   15 1
  29   14   19 ar
  30   16   17 ar
  31   16   36 1
  32   17   18 ar
  33   17   37 1
  34   18   19 ar
  35   18   38 1
  36   19   39 1
  37   20   21 1
  38   20   25 1
  39   20   40 1
  40   21   22 1
  41   21   41 1
  42   21   42 1
  43   22   23 1
  44   22   43 1
  45   22   44 1
  46   23   24 1
  47   23   45 1
  48   23   46 1
  49   24   25 1
  50   24   47 1
  51   24   48 1
  52   25   49 1
  53   25   50 1

#	End of record

