#	Name: ASD03331803
#	Creating user name:	WinNT
#	Creation time:	15. 06. 2019 20:39

#	Modifying user name:	WinNT
#	Modification time:	15. 06. 2019 20:39

#	Program:	/corina/corina34_cracker 3.40 0067  02.08.2006

@<TRIPOS>MOLECULE
ASD03331803
  54   55    0    0    0
SMALL
NO_CHARGES


@<TRIPOS>ATOM
   1 C1             0.6734     0.9850    -0.9045 C.2     
   2 N2             0.9143    -0.3109    -0.5744 N.pl3   
   3 C3            -0.1152    -0.7331     0.2083 C.2     
   4 N4            -0.9629     0.2629     0.3550 N.2     
   5 C5            -0.4987     1.3388    -0.3198 C.2     
   6 C6             1.5934     1.8137    -1.7637 C.3     
   7 N7             2.8938     1.1233    -1.8361 N.3     
   8 C8             2.7241    -0.2915    -2.1963 C.3     
   9 C9             2.0950    -1.0542    -1.0233 C.3     
  10 C10            3.7979     1.8007    -2.7751 C.3     
  11 C11           -1.1519     2.6569    -0.4095 C.2     
  12 O12           -0.6324     3.5506    -1.0502 O.2     
  13 N13           -2.3248     2.8718     0.2186 N.am    
  14 C14           -2.9741     4.1821     0.1295 C.3     
  15 C15           -3.8655     4.3835     1.3277 C.2     
  16 C16           -3.8136     4.2494    -1.1478 C.3     
  17 C17           -4.8440     3.1184    -1.1411 C.3     
  18 C18           -4.5356     5.5968    -1.2132 C.3     
  19 C19           -2.9007     4.1004    -2.3666 C.3     
  20 O20           -4.2669     3.4249     1.9530 O.2     
  21 N21           -4.2168     5.6289     1.7045 N.am    
  22 C22           -4.9968     5.8315     2.9280 C.3     
  23 C23           -0.2574    -2.0776     0.7923 C.2     
  24 C24            0.7271    -2.9616     0.6720 C.2     
  25 C25           -1.5195    -2.4507     1.5263 C.3     
  26 H26            1.1728     1.9131    -2.7643 H       
  27 H27            1.7243     2.8000    -1.3186 H       
  28 H28            2.0746    -0.3680    -3.0683 H       
  29 H29            3.6963    -0.7249    -2.4307 H       
  30 H30            2.8133    -1.1311    -0.2071 H       
  31 H31            1.7997    -2.0515    -1.3492 H       
  32 H32            3.9644     2.8257    -2.4437 H       
  33 H33            4.7498     1.2708    -2.8093 H       
  34 H34            3.3504     1.8084    -3.7689 H       
  35 H35           -2.7391     2.1590     0.7297 H       
  36 H36           -2.2143     4.9633     0.1065 H       
  37 H37           -5.4944     3.2246    -0.2728 H       
  38 H38           -5.4421     3.1664    -2.0511 H       
  39 H39           -4.3297     2.1586    -1.0946 H       
  40 H40           -3.8028     6.4033    -1.1881 H       
  41 H41           -5.1102     5.6566    -2.1375 H       
  42 H42           -5.2082     5.6903    -0.3605 H       
  43 H43           -2.3864     3.1405    -2.3200 H       
  44 H44           -3.4988     4.1483    -3.2766 H       
  45 H45           -2.1666     4.9061    -2.3714 H       
  46 H46           -3.9532     6.3912     1.1657 H       
  47 H47           -5.9469     5.3037     2.8447 H       
  48 H48           -4.4402     5.4451     3.7818 H       
  49 H49           -5.1837     6.8962     3.0677 H       
  50 H50            1.6706    -2.6635     0.2392 H       
  51 H51            0.5838    -3.9783     1.0070 H       
  52 H52           -2.2350    -2.8789     0.8244 H       
  53 H53           -1.2871    -3.1825     2.3000 H       
  54 H54           -1.9494    -1.5605     1.9856 H       
@<TRIPOS>BOND
   1    1    2 1
   2    1    6 1
   3    1    5 2
   4    2    3 1
   5    2    9 1
   6    3    4 2
   7    3   23 1
   8    4    5 1
   9    5   11 1
  10    6    7 1
  11    6   26 1
  12    6   27 1
  13    7    8 1
  14    7   10 1
  15    8    9 1
  16    8   28 1
  17    8   29 1
  18    9   30 1
  19    9   31 1
  20   10   32 1
  21   10   33 1
  22   10   34 1
  23   11   12 2
  24   11   13 am
  25   13   14 1
  26   13   35 1
  27   14   15 1
  28   14   16 1
  29   14   36 1
  30   15   20 2
  31   15   21 am
  32   16   17 1
  33   16   18 1
  34   16   19 1
  35   17   37 1
  36   17   38 1
  37   17   39 1
  38   18   40 1
  39   18   41 1
  40   18   42 1
  41   19   43 1
  42   19   44 1
  43   19   45 1
  44   21   22 1
  45   21   46 1
  46   22   47 1
  47   22   48 1
  48   22   49 1
  49   23   24 2
  50   23   25 1
  51   24   50 1
  52   24   51 1
  53   25   52 1
  54   25   53 1
  55   25   54 1

#	End of record

