#	Name: ASD03091121
#	Creating user name:	WinNT
#	Creation time:	15. 06. 2019 20:30

#	Modifying user name:	WinNT
#	Modification time:	15. 06. 2019 20:30

#	Program:	/corina/corina34_cracker 3.40 0067  02.08.2006

@<TRIPOS>MOLECULE
ASD03091121
  54   58    0    0    0
SMALL
NO_CHARGES


@<TRIPOS>ATOM
   1 C1            -0.0280     1.4679     0.0329 C.2     
   2 C2             0.0046    -0.0386     0.0110 C.3     
   3 O3             1.0051     2.0945     0.0351 O.2     
   4 O4            -1.2046     2.1137     0.0444 O.3     
   5 N5             3.3306    -1.0141     1.2308 N.2     
   6 C6             2.0880    -0.6115     1.1706 C.2     
   7 N7             1.3960    -0.4968    -0.0049 N.am    
   8 C8             1.9895    -0.8046    -1.1816 C.2     
   9 C9             3.3872    -1.2597    -1.1380 C.ar    
  10 C10            4.0849    -1.5993    -2.2947 C.ar    
  11 C11            5.4000    -2.0214    -2.1952 C.ar    
  12 C12            6.0218    -2.1068    -0.9493 C.ar    
  13 C13            5.3508    -1.7774     0.1930 C.ar    
  14 C14            4.0220    -1.3475     0.1221 C.ar    
  15 O15            1.3890    -0.7088    -2.2362 O.2     
  16 C16            1.3982    -0.2641     2.4309 C.ar    
  17 C17            0.1891    -0.8788     2.7606 C.ar    
  18 C18           -0.4499    -0.5496     3.9393 C.ar    
  19 C19            0.1066     0.3882     4.7930 C.ar    
  20 C20            1.3042     1.0007     4.4710 C.ar    
  21 C21            1.9559     0.6759     3.2989 C.ar    
  22 Cl22          -1.9540    -1.3121     4.3517 Cl      
  23 N23            7.1076    -2.0620    -6.1213 N.3     
  24 C24            5.9237    -2.8635    -5.7757 C.3     
  25 C25            5.2430    -2.3088    -4.5341 C.3     
  26 N26            6.1085    -2.3644    -3.3499 N.3     
  27 C27            7.2820    -1.4972    -3.5248 C.3     
  28 C28            8.4571    -2.2971    -4.0669 C.3     
  29 C29            8.3116    -2.6633    -5.5302 C.3     
  30 C30            7.0108    -0.6388    -5.8774 C.3     
  31 C31            6.9015    -0.3145    -4.3965 C.3     
  32 H32           -0.4954    -0.4257     0.8988 H       
  33 H33           -0.5072    -0.4001    -0.8809 H       
  34 H34           -1.1749     3.0802     0.0584 H       
  35 H35            3.6047    -1.5344    -3.2599 H       
  36 H36            7.0478    -2.4384    -0.8876 H       
  37 H37            5.8457    -1.8486     1.1503 H       
  38 H38           -0.2457    -1.6100     2.0951 H       
  39 H39           -0.3968     0.6426     5.7140 H       
  40 H40            1.7326     1.7317     5.1407 H       
  41 H41            2.8935     1.1513     3.0515 H       
  42 H42            5.2213    -2.8444    -6.6090 H       
  43 H43            6.2292    -3.8929    -5.5881 H       
  44 H44            4.9633    -1.2716    -4.7185 H       
  45 H45            4.3398    -2.8867    -4.3386 H       
  46 H46            7.5612    -1.1064    -2.5463 H       
  47 H47            9.3668    -1.7097    -3.9425 H       
  48 H48            8.5539    -3.2138    -3.4852 H       
  49 H49            8.2491    -3.7477    -5.6211 H       
  50 H50            9.1885    -2.3119    -6.0739 H       
  51 H51            7.8970    -0.1498    -6.2818 H       
  52 H52            6.1304    -0.2513    -6.3901 H       
  53 H53            5.8749    -0.0248    -4.1722 H       
  54 H54            7.5620     0.5217    -4.1673 H       
@<TRIPOS>BOND
   1    1    2 1
   2    1    3 2
   3    1    4 1
   4    2    7 1
   5    2   32 1
   6    2   33 1
   7    4   34 1
   8    5    6 2
   9    5   14 1
  10    6    7 1
  11    6   16 1
  12    7    8 am
  13    8    9 1
  14    8   15 2
  15    9   10 ar
  16    9   14 ar
  17   10   11 ar
  18   10   35 1
  19   11   12 ar
  20   11   26 1
  21   12   13 ar
  22   12   36 1
  23   13   14 ar
  24   13   37 1
  25   16   17 ar
  26   16   21 ar
  27   17   18 ar
  28   17   38 1
  29   18   19 ar
  30   18   22 1
  31   19   20 ar
  32   19   39 1
  33   20   21 ar
  34   20   40 1
  35   21   41 1
  36   23   24 1
  37   23   29 1
  38   23   30 1
  39   24   25 1
  40   24   42 1
  41   24   43 1
  42   25   26 1
  43   25   44 1
  44   25   45 1
  45   26   27 1
  46   27   28 1
  47   27   31 1
  48   27   46 1
  49   28   29 1
  50   28   47 1
  51   28   48 1
  52   29   49 1
  53   29   50 1
  54   30   31 1
  55   30   51 1
  56   30   52 1
  57   31   53 1
  58   31   54 1

#	End of record

