#	Name: ASD07980005
#	Creating user name:	WinNT
#	Creation time:	15. 06. 2019 21:14

#	Modifying user name:	WinNT
#	Modification time:	15. 06. 2019 21:14

#	Program:	/corina/corina34_cracker 3.40 0067  02.08.2006

@<TRIPOS>MOLECULE
ASD07980005
  32   33    0    0    0
SMALL
NO_CHARGES


@<TRIPOS>ATOM
   1 C1            -0.1740     1.6647     0.2019 C.ar    
   2 C2            -0.2613     0.2910     0.3276 C.ar    
   3 C3             1.0637     2.2734     0.1049 C.ar    
   4 C4             0.8890    -0.4751     0.3569 C.ar    
   5 C5             2.2143     1.5085     0.1336 C.ar    
   6 C6             2.1276     0.1332     0.2599 C.ar    
   7 C7             4.3636     1.8996     1.2818 C.2     
   8 C8             5.8225     2.2987     1.3024 C.3     
   9 C9             6.5033     1.7204     0.0574 C.3     
  10 C10            5.7444     2.1703    -1.1921 C.3     
  11 C11            4.3260     1.5983    -1.1713 C.3     
  12 C12            3.5632     2.1720     0.0274 C.3     
  13 C13            2.7664     3.9285    -1.4362 C.3     
  14 N14            3.3885     3.6207    -0.1415 N.3     
  15 O15            3.8522     1.3725     2.2404 O.2     
  16 Cl16           3.5725    -0.8282     0.2967 Cl      
  17 H17           -1.0731     2.2625     0.1749 H       
  18 H18           -1.2283    -0.1838     0.4033 H       
  19 H19            1.1312     3.3467     0.0063 H       
  20 H20            0.8207    -1.5484     0.4559 H       
  21 H21            5.9049     3.3855     1.2932 H       
  22 H22            6.2985     1.9002     2.1983 H       
  23 H23            7.5318     2.0778     0.0064 H       
  24 H24            6.4989     0.6319     0.1131 H       
  25 H25            5.6957     3.2590    -1.2140 H       
  26 H26            6.2658     1.8141    -2.0806 H       
  27 H27            3.8112     1.8691    -2.0932 H       
  28 H28            4.3730     0.5126    -1.0865 H       
  29 H29            2.5157     4.9886    -1.4760 H       
  30 H30            3.4627     3.6894    -2.2399 H       
  31 H31            1.8590     3.3360    -1.5533 H       
  32 H32            2.8528     4.0115     0.6190 H       
@<TRIPOS>BOND
   1    1    2 ar
   2    1    3 ar
   3    1   17 1
   4    2    4 ar
   5    2   18 1
   6    3    5 ar
   7    3   19 1
   8    4    6 ar
   9    4   20 1
  10    5    6 ar
  11    5   12 1
  12    6   16 1
  13    7    8 1
  14    7   12 1
  15    7   15 2
  16    8    9 1
  17    8   21 1
  18    8   22 1
  19    9   10 1
  20    9   23 1
  21    9   24 1
  22   10   11 1
  23   10   25 1
  24   10   26 1
  25   11   12 1
  26   11   27 1
  27   11   28 1
  28   12   14 1
  29   13   14 1
  30   13   29 1
  31   13   30 1
  32   13   31 1
  33   14   32 1

#	End of record

