#	Name: ASD09610089
#	Creating user name:	WinNT
#	Creation time:	15. 06. 2019 21:22

#	Modifying user name:	WinNT
#	Modification time:	15. 06. 2019 21:22

#	Program:	/corina/corina34_cracker 3.40 0067  02.08.2006

@<TRIPOS>MOLECULE
ASD09610089
  54   56    0    0    0
SMALL
NO_CHARGES


@<TRIPOS>ATOM
   1 N1            -0.0207     1.8437     0.4793 N.pl3   
   2 N2             0.0038     0.6295    -0.2154 N.2     
   3 C3             1.2435     0.2859    -0.4270 C.2     
   4 C4             2.0764     1.2823     0.1326 C.2     
   5 C5             1.2461     2.2404     0.6906 C.2     
   6 C6             3.5477     1.2984     0.1237 C.2     
   7 O7             4.1447     1.8280    -0.7944 O.2     
   8 N8             4.2340     0.7263     1.1328 N.am    
   9 C9             1.7079    -0.9564    -1.1427 C.3     
  10 C10           -1.2247     2.5647     0.9001 C.3     
  11 C11            6.3924     0.7430     2.2359 C.ar    
  12 C12            5.6263     0.6377     1.0683 C.ar    
  13 C13            6.2561     0.4444    -0.1522 C.ar    
  14 C14            7.6337     0.3565    -0.2139 C.ar    
  15 C15            8.3929     0.4599     0.9385 C.ar    
  16 C16            7.7804     0.6523     2.1605 C.ar    
  17 C17            5.7300     0.9556     3.5445 C.ar    
  18 C18            6.0548     0.1423     4.6306 C.ar    
  19 C19            5.4402     0.3394     5.8467 C.ar    
  20 C20            4.4915     1.3539     5.9930 C.ar    
  21 C21            4.1670     2.1677     4.9053 C.ar    
  22 C22            4.7863     1.9727     3.6912 C.ar    
  23 C23            3.8515     1.5593     7.2574 C.1     
  24 C24            3.3268     1.7277     8.2941 C.1     
  25 C25            2.6689     1.9389     9.5938 C.3     
  26 C26            1.6818     3.1026     9.4827 C.3     
  27 C27            1.9169     0.6689     9.9971 C.3     
  28 O28            3.6546     2.2431    10.5828 O.3     
  29 C29            3.1183     2.4672    11.8882 C.3     
  30 F30            1.6371     3.3654     1.3284 F       
  31 H31            3.7609     0.3762     1.9038 H       
  32 H32            1.8092    -0.7459    -2.2073 H       
  33 H33            2.6718    -1.2684    -0.7406 H       
  34 H34            0.9785    -1.7533    -0.9976 H       
  35 H35           -1.5168     2.2336     1.8967 H       
  36 H36           -1.0194     3.6350     0.9185 H       
  37 H37           -2.0336     2.3619     0.1982 H       
  38 H38            5.6692     0.3623    -1.0552 H       
  39 H39            8.1204     0.2060    -1.1662 H       
  40 H40            9.4691     0.3894     0.8816 H       
  41 H41            8.3768     0.7324     3.0573 H       
  42 H42            6.7882    -0.6424     4.5173 H       
  43 H43            5.6914    -0.2904     6.6873 H       
  44 H44            3.4334     2.9523     5.0176 H       
  45 H45            4.5384     2.6045     2.8511 H       
  46 H46            0.9300     2.8705     8.7284 H       
  47 H47            1.1946     3.2589    10.4452 H       
  48 H48            2.2176     4.0073     9.1955 H       
  49 H49            2.6201    -0.1601    10.0762 H       
  50 H50            1.4297     0.8253    10.9595 H       
  51 H51            1.1651     0.4369     9.2427 H       
  52 H52            2.4244     3.3072    11.8567 H       
  53 H53            2.5918     1.5734    12.2231 H       
  54 H54            3.9295     2.6919    12.5806 H       
@<TRIPOS>BOND
   1    1    2 1
   2    1    5 1
   3    1   10 1
   4    2    3 2
   5    3    4 1
   6    3    9 1
   7    4    5 2
   8    4    6 1
   9    5   30 1
  10    6    7 2
  11    6    8 am
  12    8   12 1
  13    8   31 1
  14    9   32 1
  15    9   33 1
  16    9   34 1
  17   10   35 1
  18   10   36 1
  19   10   37 1
  20   11   12 ar
  21   11   16 ar
  22   11   17 1
  23   12   13 ar
  24   13   14 ar
  25   13   38 1
  26   14   15 ar
  27   14   39 1
  28   15   16 ar
  29   15   40 1
  30   16   41 1
  31   17   18 ar
  32   17   22 ar
  33   18   19 ar
  34   18   42 1
  35   19   20 ar
  36   19   43 1
  37   20   21 ar
  38   20   23 1
  39   21   22 ar
  40   21   44 1
  41   22   45 1
  42   23   24 3
  43   24   25 1
  44   25   26 1
  45   25   27 1
  46   25   28 1
  47   26   46 1
  48   26   47 1
  49   26   48 1
  50   27   49 1
  51   27   50 1
  52   27   51 1
  53   28   29 1
  54   29   52 1
  55   29   53 1
  56   29   54 1

#	End of record

