#	Name: ASD03200094
#	Creating user name:	WinNT
#	Creation time:	15. 06. 2019 20:34

#	Modifying user name:	WinNT
#	Modification time:	15. 06. 2019 20:34

#	Program:	/corina/corina34_cracker 3.40 0067  02.08.2006

@<TRIPOS>MOLECULE
ASD03200094
  25   26    0    0    0
SMALL
NO_CHARGES


@<TRIPOS>ATOM
   1 C1            -0.0178     1.4608     0.0101 C.2     
   2 C2             0.0021    -0.0041     0.0020 C.2     
   3 C3             1.1281    -0.7978    -0.0130 C.2     
   4 C4             0.6865    -2.1247    -0.0151 C.2     
   5 C5            -0.6785    -2.0936    -0.0014 C.2     
   6 C6            -3.7771    -4.2134     0.0185 C.ar    
   7 C7            -2.9531    -3.1075     0.0162 C.ar    
   8 C8            -1.5665    -3.2736     0.0017 C.ar    
   9 C9            -3.2321    -5.4866     0.0065 C.ar    
  10 C10           -1.8579    -5.6579    -0.0137 C.ar    
  11 C11           -1.0232    -4.5601    -0.0105 C.ar    
  12 O12           -1.0796    -0.8115     0.0139 O.3     
  13 O13            1.0279     2.0837     0.0034 O.2     
  14 N14           -1.1940     2.1188     0.0192 N.am    
  15 N15           -1.2125     3.4846     0.0267 N.3     
  16 Cl16          -4.2759    -6.8737     0.0173 Cl      
  17 H17            2.1540    -0.4603    -0.0218 H       
  18 H18            1.3082    -3.0078    -0.0255 H       
  19 H19           -4.8494    -4.0864     0.0347 H       
  20 H20           -3.3793    -2.1152     0.0253 H       
  21 H21           -1.4390    -6.6533    -0.0224 H       
  22 H22            0.0483    -4.6949    -0.0217 H       
  23 H23           -2.0274     1.6224     0.0205 H       
  24 H24           -2.1593     3.8334     0.0331 H       
  25 H25           -0.6877     3.8491     0.8076 H       
@<TRIPOS>BOND
   1    1    2 1
   2    1   13 2
   3    1   14 am
   4    2    3 2
   5    2   12 1
   6    3    4 1
   7    3   17 1
   8    4    5 2
   9    4   18 1
  10    5    8 1
  11    5   12 1
  12    6    9 ar
  13    6   19 1
  14    6    7 ar
  15    7    8 ar
  16    7   20 1
  17    8   11 ar
  18    9   10 ar
  19    9   16 1
  20   10   21 1
  21   10   11 ar
  22   11   22 1
  23   14   15 1
  24   14   23 1
  25   15   24 1
  26   15   25 1

#	End of record

