#	Name: ASD01811675
#	Creating user name:	WinNT
#	Creation time:	15. 06. 2019 19:27

#	Modifying user name:	WinNT
#	Modification time:	15. 06. 2019 19:27

#	Program:	/corina/corina34_cracker 3.40 0067  02.08.2006

@<TRIPOS>MOLECULE
ASD01811675
  57   61    0    0    0
SMALL
NO_CHARGES


@<TRIPOS>ATOM
   1 C1            -0.0167     1.3805     0.0096 C.ar    
   2 C2             0.0021    -0.0041     0.0020 C.ar    
   3 C3             1.2075    -0.6836    -0.0127 C.ar    
   4 C4             2.3988     0.0118    -0.0203 C.ar    
   5 C5             2.3881     1.4079    -0.0132 C.ar    
   6 C6             1.1658     2.0836     0.0021 C.ar    
   7 C7             1.2188    -2.1905    -0.0199 C.3     
   8 C8             1.0853    -2.6871    -1.4364 C.ar    
   9 C9             3.4708     2.4102    -0.0183 C.2     
  10 N10            2.9565     3.6521    -0.0072 N.am    
  11 C11            1.4923     3.5561     0.0064 C.3     
  12 C12            3.7301     4.8962    -0.0086 C.3     
  13 C13            4.5993     4.9548    -1.2663 C.3     
  14 C14            5.4073     6.2541    -1.2678 C.3     
  15 C15            6.3016     6.2999    -0.0272 C.3     
  16 C16            5.4324     6.2412     1.2305 C.3     
  17 C17            4.6244     4.9420     1.2320 C.3     
  18 O18            3.7640     4.9120    -2.4250 O.3     
  19 O19            4.6581     2.1501    -0.0300 O.2     
  20 C20           -1.2939    -0.7731     0.0103 C.3     
  21 C21            2.2168    -2.9050    -2.2008 C.ar    
  22 C22            2.0976    -3.3605    -3.4992 C.ar    
  23 C23            0.8401    -3.5996    -4.0368 C.ar    
  24 C24           -0.2942    -3.3799    -3.2669 C.ar    
  25 C25           -0.1684    -2.9294    -1.9673 C.ar    
  26 N26            0.7158    -4.0616    -5.3545 N.pl3   
  27 N27            1.7700    -4.3243    -6.2389 N.2     
  28 C28            1.2606    -4.7388    -7.3710 C.2     
  29 C29           -0.1328    -4.7536    -7.2450 C.2     
  30 C30           -0.4426    -4.3380    -5.9950 C.2     
  31 H31           -0.9590     1.9081     0.0170 H       
  32 H32            3.3374    -0.5224    -0.0314 H       
  33 H33            2.1570    -2.5488     0.4038 H       
  34 H34            0.3854    -2.5629     0.5758 H       
  35 H35            1.0774     4.0343    -0.8809 H       
  36 H36            1.0945     4.0255     0.9061 H       
  37 H37            3.0494     5.7474     0.0026 H       
  38 H38            5.2801     4.1036    -1.2776 H       
  39 H39            6.0265     6.2958    -2.1639 H       
  40 H40            4.7265     7.1053    -1.2566 H       
  41 H41            6.9823     5.4487    -0.0385 H       
  42 H42            6.8772     7.2255    -0.0283 H       
  43 H43            6.0695     6.2739     2.1143 H       
  44 H44            4.7516     7.0924     1.2417 H       
  45 H45            4.0052     4.9002     2.1280 H       
  46 H46            5.3052     4.0908     1.2208 H       
  47 H47            4.2490     4.9455    -3.2609 H       
  48 H48           -1.6162    -0.9530    -1.0154 H       
  49 H49           -1.1473    -1.7267     0.5176 H       
  50 H50           -2.0556    -0.1960     0.5345 H       
  51 H51            3.1947    -2.7184    -1.7822 H       
  52 H52            2.9817    -3.5301    -4.0959 H       
  53 H53           -1.2737    -3.5648    -3.6825 H       
  54 H54           -1.0503    -2.7583    -1.3679 H       
  55 H55            1.8196    -5.0205    -8.2511 H       
  56 H56           -0.8367    -5.0485    -8.0092 H       
  57 H57           -1.4367    -4.2393    -5.5846 H       
@<TRIPOS>BOND
   1    1    2 ar
   2    1    6 ar
   3    1   31 1
   4    2    3 ar
   5    2   20 1
   6    3    4 ar
   7    3    7 1
   8    4    5 ar
   9    4   32 1
  10    5    6 ar
  11    5    9 1
  12    6   11 1
  13    7    8 1
  14    7   33 1
  15    7   34 1
  16    8   21 ar
  17    8   25 ar
  18    9   10 am
  19    9   19 2
  20   10   11 1
  21   10   12 1
  22   11   35 1
  23   11   36 1
  24   12   13 1
  25   12   17 1
  26   12   37 1
  27   13   14 1
  28   13   18 1
  29   13   38 1
  30   14   15 1
  31   14   39 1
  32   14   40 1
  33   15   16 1
  34   15   41 1
  35   15   42 1
  36   16   17 1
  37   16   43 1
  38   16   44 1
  39   17   45 1
  40   17   46 1
  41   18   47 1
  42   20   48 1
  43   20   49 1
  44   20   50 1
  45   21   22 ar
  46   21   51 1
  47   22   23 ar
  48   22   52 1
  49   23   24 ar
  50   23   26 1
  51   24   25 ar
  52   24   53 1
  53   25   54 1
  54   26   27 1
  55   26   30 1
  56   27   28 2
  57   28   29 1
  58   28   55 1
  59   29   30 2
  60   29   56 1
  61   30   57 1

#	End of record

