#	Name: ASD03570017
#	Creating user name:	WinNT
#	Creation time:	15. 06. 2019 20:43

#	Modifying user name:	WinNT
#	Modification time:	15. 06. 2019 20:43

#	Program:	/corina/corina34_cracker 3.40 0067  02.08.2006

@<TRIPOS>MOLECULE
ASD03570017
  36   37    0    0    0
SMALL
NO_CHARGES


@<TRIPOS>ATOM
   1 C1            -0.0168     1.3889     0.0097 C.ar    
   2 C2             0.0021    -0.0041     0.0020 C.ar    
   3 C3             1.2019    -0.6917    -0.0131 C.ar    
   4 C4             2.4044     0.0066    -0.0208 C.ar    
   5 C5             2.3918     1.4154    -0.0131 C.ar    
   6 C6             1.1633     2.1018     0.0022 C.ar    
   7 N7             3.7205    -0.3931    -0.0355 N.pl3   
   8 C8             4.5264     0.7332    -0.0371 C.2     
   9 C9             3.7383     1.8428    -0.0237 C.2     
  10 C10            4.2166     3.2718    -0.0210 C.3     
  11 C11            4.3649     3.7627    -1.4625 C.3     
  12 O12           -1.1684    -0.6930     0.0099 O.3     
  13 C13           -2.3733     0.0751     0.0260 C.3     
  14 O14            1.1403     3.4591     0.0093 O.3     
  15 C15           -0.1437     4.0862     0.0249 C.3     
  16 C16            4.8432     5.1918    -1.4598 C.2     
  17 O17            5.0448     5.7594    -0.4124 O.2     
  18 O18            5.0453     5.8341    -2.6210 O.3     
  19 C19            5.9923     0.7308    -0.0511 C.2     
  20 O20            6.6021     1.7829    -0.0509 O.2     
  21 O21            6.6646    -0.4385    -0.0643 O.3     
  22 H22           -0.9610     1.9132     0.0170 H       
  23 H23            1.2050    -1.7717    -0.0186 H       
  24 H24            4.0325    -1.3115    -0.0431 H       
  25 H25            3.4929     3.8962     0.5028 H       
  26 H26            5.1807     3.3314     0.4841 H       
  27 H27            5.0887     3.1383    -1.9863 H       
  28 H28            3.4008     3.7032    -1.9676 H       
  29 H29           -3.2321    -0.5961     0.0309 H       
  30 H30           -2.3946     0.6989     0.9196 H       
  31 H31           -2.4122     0.7085    -0.8603 H       
  32 H32           -0.0192     5.1690     0.0292 H       
  33 H33           -0.7043     3.7883    -0.8612 H       
  34 H34           -0.6870     3.7794     0.9187 H       
  35 H35            5.3522     6.7496    -2.5687 H       
  36 H36            7.6304    -0.3896    -0.0733 H       
@<TRIPOS>BOND
   1    1    2 ar
   2    1    6 ar
   3    1   22 1
   4    2    3 ar
   5    2   12 1
   6    3    4 ar
   7    3   23 1
   8    4    5 ar
   9    4    7 1
  10    5    6 ar
  11    5    9 1
  12    6   14 1
  13    7    8 1
  14    7   24 1
  15    8    9 2
  16    8   19 1
  17    9   10 1
  18   10   11 1
  19   10   25 1
  20   10   26 1
  21   11   16 1
  22   11   27 1
  23   11   28 1
  24   12   13 1
  25   13   29 1
  26   13   30 1
  27   13   31 1
  28   14   15 1
  29   15   32 1
  30   15   33 1
  31   15   34 1
  32   16   17 2
  33   16   18 1
  34   18   35 1
  35   19   20 2
  36   19   21 1
  37   21   36 1

#	End of record

