#	Name: ASD01917909
#	Creating user name:	WinNT
#	Creation time:	15. 06. 2019 20:10

#	Modifying user name:	WinNT
#	Modification time:	15. 06. 2019 20:10

#	Program:	/corina/corina34_cracker 3.40 0067  02.08.2006

@<TRIPOS>MOLECULE
ASD01917909
  41   44    0    0    0
SMALL
NO_CHARGES


@<TRIPOS>ATOM
   1 C1             0.0187     1.2456    -0.1360 C.2     
   2 C2            -0.0107    -0.1007    -0.1117 C.2     
   3 C3            -1.2692    -0.9272    -0.0333 C.3     
   4 C4            -2.4167    -0.0366     0.4591 C.3     
   5 N5            -2.3800     1.2422    -0.2662 N.am    
   6 C6            -1.2101     2.1193    -0.0778 C.3     
   7 C7            -3.3897     1.6029    -1.0828 C.2     
   8 O8            -4.2860     0.8186    -1.3238 O.2     
   9 O9             1.3029     1.6184    -0.2127 O.3     
  10 C10            2.0477     0.5016    -0.2311 C.2     
  11 N11            1.2558    -0.5338    -0.1699 N.2     
  12 C12            3.5518     0.4519    -0.3102 C.3     
  13 O13            3.9557     0.4112    -1.6804 O.3     
  14 C14            5.2909     0.3634    -1.9288 C.ar    
  15 C15            5.7533     0.3222    -3.2362 C.ar    
  16 C16            7.1111     0.2736    -3.4861 C.ar    
  17 C17            8.0090     0.2661    -2.4347 C.ar    
  18 C18            7.5506     0.3066    -1.1308 C.ar    
  19 C19            6.1940     0.3615    -0.8757 C.ar    
  20 C20           -3.4069     2.9558    -1.6865 C.ar    
  21 N21           -2.5124     3.8640    -1.3150 N.ar    
  22 N22           -2.4945     5.0461    -1.8148 N.ar    
  23 C23           -3.3628     5.4388    -2.7308 C.ar    
  24 C24           -4.3369     4.5638    -3.1844 C.ar    
  25 C25           -4.3609     3.2811    -2.6540 C.ar    
  26 H26           -1.5100    -1.3203    -1.0210 H       
  27 H27           -1.1217    -1.7518     0.6641 H       
  28 H28           -3.3690    -0.5335     0.2735 H       
  29 H29           -2.3026     0.1471     1.5275 H       
  30 H30           -1.2686     2.6124     0.8925 H       
  31 H31           -1.1735     2.8647    -0.8722 H       
  32 H32            3.9702     1.3387     0.1658 H       
  33 H33            3.9132    -0.4400     0.2017 H       
  34 H34            5.0524     0.3277    -4.0578 H       
  35 H35            7.4716     0.2412    -4.5037 H       
  36 H36            9.0701     0.2281    -2.6321 H       
  37 H37            8.2539     0.2999    -0.3112 H       
  38 H38            5.8365     0.3932     0.1429 H       
  39 H39           -3.3131     6.4427    -3.1258 H       
  40 H40           -5.0540     4.8696    -3.9318 H       
  41 H41           -5.0989     2.5601    -2.9732 H       
@<TRIPOS>BOND
   1    1    2 2
   2    1    9 1
   3    1    6 1
   4    2    3 1
   5    2   11 1
   6    3    4 1
   7    3   26 1
   8    3   27 1
   9    4    5 1
  10    4   28 1
  11    4   29 1
  12    5    6 1
  13    5    7 am
  14    6   30 1
  15    6   31 1
  16    7    8 2
  17    7   20 1
  18    9   10 1
  19   10   11 2
  20   10   12 1
  21   12   13 1
  22   12   32 1
  23   12   33 1
  24   13   14 1
  25   14   15 ar
  26   14   19 ar
  27   15   16 ar
  28   15   34 1
  29   16   17 ar
  30   16   35 1
  31   17   18 ar
  32   17   36 1
  33   18   19 ar
  34   18   37 1
  35   19   38 1
  36   20   21 ar
  37   20   25 ar
  38   21   22 ar
  39   22   23 ar
  40   23   24 ar
  41   23   39 1
  42   24   25 ar
  43   24   40 1
  44   25   41 1

#	End of record

