#	Name: ASD01140605
#	Creating user name:	WinNT
#	Creation time:	15. 06. 2019 19:01

#	Modifying user name:	WinNT
#	Modification time:	15. 06. 2019 19:01

#	Program:	/corina/corina34_cracker 3.40 0067  02.08.2006

@<TRIPOS>MOLECULE
ASD01140605
  31   33    0    0    0
SMALL
NO_CHARGES


@<TRIPOS>ATOM
   1 C1            -0.2543     0.8737     0.3196 C.ar    
   2 C2             0.0010    -0.4837     0.5821 C.ar    
   3 C3             1.2659    -0.9678     0.4606 C.ar    
   4 C4             2.3212    -0.1337     0.0778 C.ar    
   5 C5             2.1086     1.1896    -0.1842 C.ar    
   6 C6             0.8136     1.7209    -0.0691 C.ar    
   7 C7             0.5563     3.0779    -0.3311 C.ar    
   8 C8            -0.7108     3.5590    -0.2086 C.ar    
   9 C9            -1.7606     2.7259     0.1741 C.ar    
  10 C10           -1.5502     1.4057     0.4298 C.ar    
  11 O11            3.5747    -0.6467    -0.0344 O.3     
  12 C12            3.8358    -1.3850    -1.1250 C.2     
  13 C13            5.1646    -2.0824    -1.2625 C.3     
  14 O14            3.0053    -1.4903    -1.9963 O.2     
  15 N15            5.2021    -2.8164    -2.5298 N.pl3   
  16 C16            5.4997    -3.3342    -4.6268 C.2     
  17 N17            4.9910    -4.3962    -3.9846 N.2     
  18 C18            4.8083    -4.0928    -2.7286 C.2     
  19 C19            5.6374    -2.3347    -3.7348 C.2     
  20 H20           -0.8042    -1.1392     0.8793 H       
  21 H21            1.4584    -2.0110     0.6630 H       
  22 H22            2.9317     1.8240    -0.4784 H       
  23 H23            1.3602     3.7353    -0.6279 H       
  24 H24           -0.9057     4.6019    -0.4105 H       
  25 H25           -2.7568     3.1330     0.2643 H       
  26 H26           -2.3745     0.7712     0.7203 H       
  27 H27            5.9660    -1.3438    -1.2465 H       
  28 H28            5.2964    -2.7794    -0.4349 H       
  29 H29            5.7546    -3.2888    -5.6753 H       
  30 H30            4.4088    -4.7531    -1.9731 H       
  31 H31            6.0178    -1.3434    -3.9324 H       
@<TRIPOS>BOND
   1    1    2 ar
   2    1    6 ar
   3    1   10 ar
   4    2    3 ar
   5    2   20 1
   6    3    4 ar
   7    3   21 1
   8    4    5 ar
   9    4   11 1
  10    5    6 ar
  11    5   22 1
  12    6    7 ar
  13    7    8 ar
  14    7   23 1
  15    8    9 ar
  16    8   24 1
  17    9   10 ar
  18    9   25 1
  19   10   26 1
  20   11   12 1
  21   12   13 1
  22   12   14 2
  23   13   15 1
  24   13   27 1
  25   13   28 1
  26   15   19 1
  27   15   18 1
  28   16   17 1
  29   16   19 2
  30   16   29 1
  31   17   18 2
  32   18   30 1
  33   19   31 1

#	End of record

