#	Name: ASD02198230
#	Creating user name:	WinNT
#	Creation time:	15. 06. 2019 20:19

#	Modifying user name:	WinNT
#	Modification time:	15. 06. 2019 20:19

#	Program:	/corina/corina34_cracker 3.40 0067  02.08.2006

@<TRIPOS>MOLECULE
ASD02198230
  44   46    0    0    0
SMALL
NO_CHARGES


@<TRIPOS>ATOM
   1 C1            -0.0166     1.3753     0.0096 C.2     
   2 C2             0.0021    -0.0041     0.0020 C.2     
   3 C3            -1.1878    -0.8008     0.0091 C.1     
   4 S4             1.5675     2.0054    -0.0021 S.3     
   5 C5             2.2772     0.3990    -0.0175 C.2     
   6 C6             1.2824    -0.5520    -0.0132 C.2     
   7 C7             3.6579     0.1249    -0.0326 C.2     
   8 C8             4.6308     1.2351    -0.0359 C.2     
   9 O9             4.0505    -1.0301    -0.0430 O.2     
  10 N10            1.5294    -1.9154    -0.0228 N.pl3   
  11 N11           -1.1593     2.1393     0.0194 N.pl3   
  12 N12           -2.1317    -1.4328     0.0147 N.1     
  13 C13           -1.0630     3.6011     0.0268 C.3     
  14 C14           -2.4689     4.2047     0.0370 C.3     
  15 O15            4.3522     2.5520    -0.0253 O.3     
  16 N16            5.3580     3.2224    -0.0315 N.2     
  17 C17            6.4373     2.4802    -0.0468 C.2     
  18 C18            5.9935     1.1303    -0.0443 C.2     
  19 C19            7.8437     2.9548    -0.0587 C.ar    
  20 C20            8.1205     4.3205    -0.0534 C.ar    
  21 C21            8.8908     2.0363    -0.0694 C.ar    
  22 C22           10.1978     2.4829    -0.0800 C.ar    
  23 C23           10.4673     3.8417    -0.0800 C.ar    
  24 C24            9.4292     4.7575    -0.0640 C.ar    
  25 Cl25          12.1118     4.3979    -0.0933 Cl      
  26 Cl26          11.5044     1.3399    -0.0927 Cl      
  27 C27           -3.1716     3.8387     1.3458 C.3     
  28 C28           -2.3711     5.7270    -0.0809 C.3     
  29 H29            2.4424    -2.2428    -0.0333 H       
  30 H30            0.7893    -2.5424    -0.0191 H       
  31 H31           -2.0294     1.7105     0.0213 H       
  32 H32           -0.5221     3.9251     0.9159 H       
  33 H33           -0.5308     3.9347    -0.8640 H       
  34 H34           -3.0394     3.8110    -0.8042 H       
  35 H35            6.5927     0.2318    -0.0534 H       
  36 H36            7.3116     5.0361    -0.0414 H       
  37 H37            8.6811     0.9768    -0.0691 H       
  38 H38            9.6441     5.8160    -0.0645 H       
  39 H39           -4.1732     4.2687     1.3531 H       
  40 H40           -3.2412     2.7541     1.4299 H       
  41 H41           -2.6011     4.2324     2.1870 H       
  42 H42           -1.8705     5.9878    -1.0134 H       
  43 H43           -3.3727     6.1571    -0.0737 H       
  44 H44           -1.8006     6.1207     0.7602 H       
@<TRIPOS>BOND
   1    1    2 2
   2    1    4 1
   3    1   11 1
   4    2    3 1
   5    2    6 1
   6    3   12 3
   7    4    5 1
   8    5    6 2
   9    5    7 1
  10    6   10 1
  11    7    8 1
  12    7    9 2
  13    8   15 1
  14    8   18 2
  15   10   29 1
  16   10   30 1
  17   11   13 1
  18   11   31 1
  19   13   14 1
  20   13   32 1
  21   13   33 1
  22   14   27 1
  23   14   28 1
  24   14   34 1
  25   15   16 1
  26   16   17 2
  27   17   18 1
  28   17   19 1
  29   18   35 1
  30   19   20 ar
  31   19   21 ar
  32   20   24 ar
  33   20   36 1
  34   21   22 ar
  35   21   37 1
  36   22   23 ar
  37   22   26 1
  38   23   24 ar
  39   23   25 1
  40   24   38 1
  41   27   39 1
  42   27   40 1
  43   27   41 1
  44   28   42 1
  45   28   43 1
  46   28   44 1

#	End of record

