#	Name: ASD02198451
#	Creating user name:	WinNT
#	Creation time:	15. 06. 2019 20:19

#	Modifying user name:	WinNT
#	Modification time:	15. 06. 2019 20:19

#	Program:	/corina/corina34_cracker 3.40 0067  02.08.2006

@<TRIPOS>MOLECULE
ASD02198451
  42   44    0    0    0
SMALL
NO_CHARGES


@<TRIPOS>ATOM
   1 S1             0.2712     1.7217     0.2198 S.3     
   2 S2            -1.3623    -0.9364     0.0486 S.o2    
   3 C3             0.1446    -0.0318     0.1724 C.2     
   4 C4            -1.1741    -1.8861     2.5121 C.ar    
   5 N5            -1.9286    -1.1587     1.5888 N.am    
   6 O6            -2.2920    -0.0804    -0.6011 O.2     
   7 O7            -1.0178    -2.2247    -0.4421 O.2     
   8 C8            -0.9900    -1.3978     3.7994 C.ar    
   9 C9            -0.2438    -2.1198     4.7100 C.ar    
  10 C10           -0.6110    -3.1023     2.1468 C.ar    
  11 C11            0.1341    -3.8192     3.0623 C.ar    
  12 C12            0.3198    -3.3276     4.3415 C.ar    
  13 C13           -0.0431    -1.5906     6.1067 C.3     
  14 F14           -1.0711    -2.0555     6.9337 F       
  15 F15            1.1889    -2.0331     6.6004 F       
  16 F16           -0.0605    -0.1919     6.0824 F       
  17 C17            0.7450    -5.1389     2.6671 C.3     
  18 F18            2.0251    -4.9228     2.1459 F       
  19 F19            0.8328    -5.9674     3.7910 F       
  20 F20           -0.0559    -5.7518     1.6975 F       
  21 C21            1.3650    -0.5752     0.2441 C.2     
  22 C22            2.4016     0.3272     0.3351 C.2     
  23 C23            2.0234     1.6228     0.3378 C.2     
  24 C24            2.9378     2.7772     0.4259 C.ar    
  25 C25            2.4356     4.0853     0.4204 C.ar    
  26 C26            3.3309     5.1342     0.5048 C.ar    
  27 N27            4.6274     4.8755     0.5880 N.ar    
  28 C28            5.0768     3.6282     0.5913 C.ar    
  29 N29            4.2553     2.5923     0.5178 N.ar    
  30 S30            6.8117     3.3414     0.7039 S.3     
  31 C31            7.4080     5.0485     0.7824 C.3     
  32 H32           -2.7843    -0.7837     1.8497 H       
  33 H33           -1.4295    -0.4544     4.0878 H       
  34 H34           -0.7559    -3.4870     1.1481 H       
  35 H35            0.9032    -3.8901     5.0554 H       
  36 H36            1.5256    -1.6432     0.2319 H       
  37 H37            3.4356     0.0220     0.3996 H       
  38 H38            1.3736     4.2694     0.3513 H       
  39 H39            2.9773     6.1546     0.5028 H       
  40 H40            8.4955     5.0504     0.8570 H       
  41 H41            7.1047     5.5811    -0.1189 H       
  42 H42            6.9830     5.5420     1.6565 H       
@<TRIPOS>BOND
   1    1    3 1
   2    1   23 1
   3    2    3 1
   4    2    6 2
   5    2    7 2
   6    2    5 am
   7    3   21 2
   8    4    5 1
   9    4    8 ar
  10    4   10 ar
  11    5   32 1
  12    8    9 ar
  13    8   33 1
  14    9   13 1
  15    9   12 ar
  16   10   11 ar
  17   10   34 1
  18   11   12 ar
  19   11   17 1
  20   12   35 1
  21   13   14 1
  22   13   15 1
  23   13   16 1
  24   17   18 1
  25   17   19 1
  26   17   20 1
  27   21   22 1
  28   21   36 1
  29   22   23 2
  30   22   37 1
  31   23   24 1
  32   24   25 ar
  33   24   29 ar
  34   25   26 ar
  35   25   38 1
  36   26   27 ar
  37   26   39 1
  38   27   28 ar
  39   28   29 ar
  40   28   30 1
  41   30   31 1
  42   31   40 1
  43   31   41 1
  44   31   42 1

#	End of record

