#	Name: ASD01813515
#	Creating user name:	WinNT
#	Creation time:	15. 06. 2019 19:30

#	Modifying user name:	WinNT
#	Modification time:	15. 06. 2019 19:30

#	Program:	/corina/corina34_cracker 3.40 0067  02.08.2006

@<TRIPOS>MOLECULE
ASD01813515
  50   54    0    0    0
SMALL
NO_CHARGES


@<TRIPOS>ATOM
   1 C1            -0.0168     1.3825    -0.0466 C.ar    
   2 C2             0.0020    -0.0038    -0.0536 C.ar    
   3 C3             1.1975    -0.6932    -0.0497 C.ar    
   4 C4             2.4040     0.0044    -0.0390 C.ar    
   5 C5             2.3834     1.4096    -0.0324 C.ar    
   6 C6             1.1657     2.0946    -0.0360 C.ar    
   7 N7             3.6050    -0.6734    -0.0339 N.pl3   
   8 C8             4.7898    -0.0496    -0.0227 C.2     
   9 C9             4.8962     1.3266    -0.0150 C.2     
  10 C10            3.6660     2.1351    -0.0211 C.2     
  11 O11            3.7066     3.3531    -0.0152 O.2     
  12 C12            6.2155     1.9737    -0.0018 C.2     
  13 O13            6.3065     3.3187     0.0057 O.3     
  14 O14            7.2249     1.2962     0.0024 O.2     
  15 C15            3.5837    -2.1382    -0.0406 C.3     
  16 C16            3.4403    -2.6321    -1.4571 C.ar    
  17 N17            2.2384    -2.7342    -1.9904 N.ar    
  18 C18            2.0591    -3.1599    -3.2243 C.ar    
  19 C19            3.1477    -3.5209    -4.0150 C.ar    
  20 C20            4.4346    -3.4238    -3.4785 C.ar    
  21 C21            4.5715    -2.9658    -2.1796 C.ar    
  22 C22            2.9442    -4.0012    -5.4042 C.ar    
  23 F23            1.1984    -2.0441    -0.0557 F       
  24 C24            4.0459    -4.3603    -6.1871 C.ar    
  25 C25            3.8764    -4.8041    -7.4670 C.ar    
  26 C26            2.5988    -4.9041    -8.0099 C.ar    
  27 C27            1.4821    -4.5454    -7.2314 C.ar    
  28 C28            1.6601    -4.0986    -5.9226 C.ar    
  29 N29            2.1236    -5.3067    -9.2381 N.pl3   
  30 C30            0.7585    -5.2157    -9.2622 C.2     
  31 C31            0.3087    -4.7625    -8.0816 C.2     
  32 C32            2.9560    -5.7641   -10.3535 C.3     
  33 F33            1.1457     3.4455    -0.0301 F       
  34 H34           -0.9606     1.9075    -0.0539 H       
  35 H35           -0.9294    -0.5504    -0.0619 H       
  36 H36            5.6921    -0.6430    -0.0193 H       
  37 H37            7.1957     3.6986     0.0144 H       
  38 H38            4.5134    -2.5171     0.3839 H       
  39 H39            2.7418    -2.4920     0.5545 H       
  40 H40            1.0591    -3.2300    -3.6262 H       
  41 H41            5.3005    -3.6955    -4.0640 H       
  42 H42            5.5506    -2.8774    -1.7323 H       
  43 H43            5.0414    -4.2855    -5.7750 H       
  44 H44            4.7364    -5.0780    -8.0601 H       
  45 H45            0.8072    -3.8223    -5.3204 H       
  46 H46            0.1352    -5.4707   -10.1065 H       
  47 H47           -0.7223    -4.5905    -7.8099 H       
  48 H48            3.0923    -6.8434   -10.2864 H       
  49 H49            2.4677    -5.5174   -11.2963 H       
  50 H50            3.9273    -5.2716   -10.3077 H       
@<TRIPOS>BOND
   1    1    2 ar
   2    1    6 ar
   3    1   34 1
   4    2    3 ar
   5    2   35 1
   6    3    4 ar
   7    3   23 1
   8    4    5 ar
   9    4    7 1
  10    5    6 ar
  11    5   10 1
  12    6   33 1
  13    7    8 1
  14    7   15 1
  15    8    9 2
  16    8   36 1
  17    9   10 1
  18    9   12 1
  19   10   11 2
  20   12   13 1
  21   12   14 2
  22   13   37 1
  23   15   16 1
  24   15   38 1
  25   15   39 1
  26   16   17 ar
  27   16   21 ar
  28   17   18 ar
  29   18   19 ar
  30   18   40 1
  31   19   20 ar
  32   19   22 1
  33   20   21 ar
  34   20   41 1
  35   21   42 1
  36   22   24 ar
  37   22   28 ar
  38   24   25 ar
  39   24   43 1
  40   25   26 ar
  41   25   44 1
  42   26   27 ar
  43   26   29 1
  44   27   28 ar
  45   27   31 1
  46   28   45 1
  47   29   30 1
  48   29   32 1
  49   30   31 2
  50   30   46 1
  51   31   47 1
  52   32   48 1
  53   32   49 1
  54   32   50 1

#	End of record

