#	Name: ASD01884021
#	Creating user name:	WinNT
#	Creation time:	15. 06. 2019 19:47

#	Modifying user name:	WinNT
#	Modification time:	15. 06. 2019 19:47

#	Program:	/corina/corina34_cracker 3.40 0067  02.08.2006

@<TRIPOS>MOLECULE
ASD01884021
  56   58    0    0    0
SMALL
NO_CHARGES


@<TRIPOS>ATOM
   1 C1            -0.7674     1.4115    -1.0611 C.2     
   2 C2            -0.7648     0.0060    -1.0933 C.2     
   3 C3            -1.1844    -0.6871     0.0102 C.2     
   4 C4            -1.6102     0.0190     1.1560 C.2     
   5 C5            -1.6044     1.3664     1.1649 C.2     
   6 N6            -1.1826     2.0670     0.0725 N.pl3   
   7 C7            -1.0704     3.3976    -0.2052 C.2     
   8 N8            -0.6174     3.5073    -1.4264 N.2     
   9 N9            -0.4300     2.3427    -1.9404 N.2     
  10 N10           -1.1914    -2.0799     0.0024 N.pl3   
  11 C11           -1.4079     4.5337     0.7255 C.3     
  12 Cl12          -0.2370    -0.8398    -2.5145 Cl      
  13 O13           -0.2514     4.8842     1.4883 O.3     
  14 C14           -2.4534    -2.8228     0.1213 C.3     
  15 C15           -2.3305    -3.8221     1.2759 C.3     
  16 C16           -1.1002    -4.7046     1.0527 C.3     
  17 C17            0.1577    -3.8333     1.0320 C.3     
  18 C18            0.0625    -2.8341    -0.1310 C.3     
  19 C19           -0.4647     5.9575     2.4073 C.3     
  20 C20           -0.9248     5.3929     3.7529 C.3     
  21 C21            0.8408     6.7320     2.5988 C.3     
  22 C22           -0.9953    -5.7113     2.1692 C.ar    
  23 C23           -0.1622    -6.8064     2.0364 C.ar    
  24 C24           -0.0660    -7.7298     3.0605 C.ar    
  25 C25           -0.8026    -7.5581     4.2176 C.ar    
  26 C26           -1.6350    -6.4625     4.3507 C.ar    
  27 C27           -1.7279    -5.5368     3.3284 C.ar    
  28 F28           -1.2230    -5.3750    -0.1690 F       
  29 H29           -1.9424    -0.5231     2.0290 H       
  30 H30           -1.9322     1.8969     2.0467 H       
  31 H31           -1.7341     5.3956     0.1434 H       
  32 H32           -2.2079     4.2263     1.3990 H       
  33 H33           -3.2686    -2.1283     0.3243 H       
  34 H34           -2.6504    -3.3594    -0.8069 H       
  35 H35           -2.2241    -3.2806     2.2159 H       
  36 H36           -3.2236    -4.4458     1.3139 H       
  37 H37            0.2407    -3.2916     1.9743 H       
  38 H38            1.0356    -4.4649     0.8964 H       
  39 H39            0.0665    -3.3715    -1.0793 H       
  40 H40            0.9078    -2.1470    -0.0945 H       
  41 H41           -1.2297     6.6266     2.0134 H       
  42 H42           -1.0875     6.2116     4.4539 H       
  43 H43           -1.8549     4.8412     3.6165 H       
  44 H44           -0.1598     4.7238     4.1468 H       
  45 H45            1.1686     7.1342     1.6402 H       
  46 H46            0.6782     7.5506     3.2998 H       
  47 H47            1.6058     6.0628     2.9928 H       
  48 H48            0.4133    -6.9406     1.1324 H       
  49 H49            0.5844    -8.5858     2.9565 H       
  50 H50           -0.7279    -8.2799     5.0174 H       
  51 H51           -2.2108    -6.3285     5.2546 H       
  52 H52           -2.3755    -4.6789     3.4339 H       
  53 N53            7.1442    13.5595    11.0289 N.3     
  54 H54            7.1579    12.5506    11.0234 H       
  55 H55            8.0812    13.9339    11.0220 H       
  56 H56            6.6058    13.9181    10.2546 H       
@<TRIPOS>BOND
   1    1    2 1
   2    1    9 2
   3    1    6 1
   4    2    3 2
   5    2   12 1
   6    3    4 1
   7    3   10 1
   8    4    5 2
   9    4   29 1
  10    5    6 1
  11    5   30 1
  12    6    7 1
  13    7    8 2
  14    7   11 1
  15    8    9 1
  16   10   14 1
  17   10   18 1
  18   11   13 1
  19   11   31 1
  20   11   32 1
  21   13   19 1
  22   14   15 1
  23   14   33 1
  24   14   34 1
  25   15   16 1
  26   15   35 1
  27   15   36 1
  28   16   17 1
  29   16   22 1
  30   16   28 1
  31   17   18 1
  32   17   37 1
  33   17   38 1
  34   18   39 1
  35   18   40 1
  36   19   20 1
  37   19   21 1
  38   19   41 1
  39   20   42 1
  40   20   43 1
  41   20   44 1
  42   21   45 1
  43   21   46 1
  44   21   47 1
  45   22   23 ar
  46   22   27 ar
  47   23   24 ar
  48   23   48 1
  49   24   25 ar
  50   24   49 1
  51   25   26 ar
  52   25   50 1
  53   26   27 ar
  54   26   51 1
  55   27   52 1
  56   53   54 1
  57   53   55 1
  58   53   56 1

#	End of record

