#	Name: ASD05390018
#	Creating user name:	WinNT
#	Creation time:	15. 06. 2019 20:59

#	Modifying user name:	WinNT
#	Modification time:	15. 06. 2019 20:59

#	Program:	/corina/corina34_cracker 3.40 0067  02.08.2006

@<TRIPOS>MOLECULE
ASD05390018
  16   17    0    0    0
SMALL
NO_CHARGES


@<TRIPOS>ATOM
   1 N1            -0.0161     1.3395     0.0094 N.am    
   2 C2             0.0021    -0.0041     0.0020 C.2     
   3 C3             1.1618     2.0635     0.0020 C.ar    
   4 O4            -1.0575    -0.6001     0.0086 O.2     
   5 N5             1.1395    -0.7166    -0.0127 N.am    
   6 C6             2.3456    -0.1086    -0.0206 C.2     
   7 O7             3.3723    -0.7592    -0.0331 O.2     
   8 C8             2.3838     1.3683    -0.0134 C.ar    
   9 N9             3.5293     2.0355    -0.0203 N.ar    
  10 C10            3.5144     3.3544    -0.0126 C.ar    
  11 C11            2.3084     4.0434     0.0026 C.ar    
  12 N12            1.1611     3.3885     0.0097 N.ar    
  13 H13           -0.8660     1.8071     0.0160 H       
  14 H14            1.0945    -1.6856    -0.0175 H       
  15 H15            4.4454     3.9018    -0.0179 H       
  16 H16            2.3087     5.1234     0.0088 H       
@<TRIPOS>BOND
   1    1    2 am
   2    1    3 1
   3    1   13 1
   4    2    4 2
   5    2    5 am
   6    3    8 ar
   7    3   12 ar
   8    5    6 am
   9    5   14 1
  10    6    7 2
  11    6    8 1
  12    8    9 ar
  13    9   10 ar
  14   10   11 ar
  15   10   15 1
  16   11   12 ar
  17   11   16 1

#	End of record

