#	Name: ASD01811366
#	Creating user name:	WinNT
#	Creation time:	15. 06. 2019 19:26

#	Modifying user name:	WinNT
#	Modification time:	15. 06. 2019 19:26

#	Program:	/corina/corina34_cracker 3.40 0067  02.08.2006

@<TRIPOS>MOLECULE
ASD01811366
  41   44    0    0    0
SMALL
NO_CHARGES


@<TRIPOS>ATOM
   1 C1            -0.0176     1.4479     0.0100 C.3     
   2 O2             0.0021    -0.0041     0.0020 O.3     
   3 C3             1.2793    -0.4223    -0.0136 C.2     
   4 C4             2.1937     0.7345    -0.0161 C.ar    
   5 C5             3.5858     0.8366    -0.0292 C.ar    
   6 C6             4.1824     2.0813    -0.0271 C.ar    
   7 C7             3.4060     3.2279    -0.0119 C.ar    
   8 C8             2.0246     3.1338     0.0015 C.ar    
   9 C9             1.4195     1.8985    -0.0013 C.ar    
  10 N10           -2.8346     2.0548     0.0386 N.3     
  11 C11           -2.2082     1.5313    -1.1820 C.3     
  12 C12           -0.7421     1.9690    -1.2319 C.3     
  13 C13           -0.7193     1.9560     1.2700 C.3     
  14 C14           -2.1862     1.5191     1.2422 C.3     
  15 O15            1.6298    -1.5853    -0.0236 O.2     
  16 Br16           6.0682     2.2215    -0.0442 Br      
  17 C17           -4.2772     1.7780     0.0503 C.3     
  18 C18           -4.8403     2.1041     1.4095 C.ar    
  19 C19           -5.3166     3.3747     1.6737 C.ar    
  20 C20           -5.8330     3.6738     2.9205 C.ar    
  21 C21           -5.8737     2.7023     3.9031 C.ar    
  22 C22           -5.3982     1.4315     3.6387 C.ar    
  23 C23           -4.8857     1.1312     2.3904 C.ar    
  24 H24            4.1943    -0.0556    -0.0407 H       
  25 H25            3.8794     4.1986    -0.0100 H       
  26 H26            1.4224     4.0302     0.0140 H       
  27 H27           -2.2624     0.4426    -1.1798 H       
  28 H28           -2.7330     1.9194    -2.0549 H       
  29 H29           -0.6877     3.0574    -1.2550 H       
  30 H30           -0.2707     1.5613    -2.1261 H       
  31 H31           -0.2319     1.5390     2.1513 H       
  32 H32           -0.6642     3.0441     1.3035 H       
  33 H33           -2.6950     1.8984     2.1283 H       
  34 H34           -2.2408     0.4305     1.2302 H       
  35 H35           -4.7709     2.3907    -0.7041 H       
  36 H36           -4.4467     0.7240    -0.1699 H       
  37 H37           -5.2849     4.1337     0.9060 H       
  38 H38           -6.2045     4.6667     3.1272 H       
  39 H39           -6.2765     2.9362     4.8775 H       
  40 H40           -5.4296     0.6726     4.4064 H       
  41 H41           -4.5177     0.1373     2.1827 H       
@<TRIPOS>BOND
   1    1    2 1
   2    1    9 1
   3    1   12 1
   4    1   13 1
   5    2    3 1
   6    3    4 1
   7    3   15 2
   8    4    5 ar
   9    4    9 ar
  10    5    6 ar
  11    5   24 1
  12    6    7 ar
  13    6   16 1
  14    7    8 ar
  15    7   25 1
  16    8    9 ar
  17    8   26 1
  18   10   11 1
  19   10   14 1
  20   10   17 1
  21   11   12 1
  22   11   27 1
  23   11   28 1
  24   12   29 1
  25   12   30 1
  26   13   14 1
  27   13   31 1
  28   13   32 1
  29   14   33 1
  30   14   34 1
  31   17   18 1
  32   17   35 1
  33   17   36 1
  34   18   19 ar
  35   18   23 ar
  36   19   20 ar
  37   19   37 1
  38   20   21 ar
  39   20   38 1
  40   21   22 ar
  41   21   39 1
  42   22   23 ar
  43   22   40 1
  44   23   41 1

#	End of record

