#	Name: ASD08830066
#	Creating user name:	WinNT
#	Creation time:	15. 06. 2019 21:19

#	Modifying user name:	WinNT
#	Modification time:	15. 06. 2019 21:19

#	Program:	/corina/corina34_cracker 3.40 0067  02.08.2006

@<TRIPOS>MOLECULE
ASD08830066
  36   38    0    0    0
SMALL
NO_CHARGES


@<TRIPOS>ATOM
   1 C1            -0.0169     1.3961     0.0097 C.ar    
   2 C2             0.0021    -0.0041     0.0020 C.ar    
   3 C3             1.1867     2.1150     0.0021 C.ar    
   4 C4             2.3816     1.4676    -0.0128 C.ar    
   5 C5             2.4237     0.0631    -0.0208 C.ar    
   6 C6             1.2421    -0.6684    -0.0139 C.ar    
   7 C7             3.7174    -0.6324    -0.0374 C.2     
   8 C8             4.9990     0.1604    -0.0459 C.3     
   9 C9             6.1915    -0.7981    -0.0629 C.3     
  10 N10            7.4408    -0.0253    -0.0712 N.3     
  11 O11            3.7542    -1.8447    -0.0443 O.2     
  12 C12            8.6021    -0.8989     0.1509 C.3     
  13 C13            9.8835    -0.0645     0.0752 C.3     
  14 O14            9.8129     0.9961     1.0320 O.3     
  15 C15            8.6939     1.8668     0.8449 C.3     
  16 C16            7.4005     1.0519     0.9284 C.3     
  17 C17           -1.3414    -0.5627     0.0119 C.2     
  18 C18           -2.3120     0.3276     0.0259 C.2     
  19 S19           -1.6827     1.9634     0.0215 S.3     
  20 H20            1.1641     3.1947     0.0078 H       
  21 H21            3.3011     2.0341    -0.0189 H       
  22 H22            1.2757    -1.7479    -0.0201 H       
  23 H23            5.0289     0.7933    -0.9328 H       
  24 H24            5.0466     0.7837     0.8470 H       
  25 H25            6.1616    -1.4310     0.8240 H       
  26 H26            6.1439    -1.4214    -0.9559 H       
  27 H27            8.5267    -1.3616     1.1349 H       
  28 H28            8.6266    -1.6737    -0.6154 H       
  29 H29           10.7433    -0.6970     0.2957 H       
  30 H30            9.9863     0.3546    -0.9258 H       
  31 H31            8.6934     2.6310     1.6221 H       
  32 H32            8.7622     2.3421    -0.1337 H       
  33 H33            6.5478     1.7012     0.7297 H       
  34 H34            7.3059     0.6205     1.9248 H       
  35 H35           -1.5285    -1.6264     0.0076 H       
  36 H36           -3.3634     0.0807     0.0347 H       
@<TRIPOS>BOND
   1    1    2 ar
   2    1    3 ar
   3    1   19 1
   4    2   17 1
   5    2    6 ar
   6    3    4 ar
   7    3   20 1
   8    4    5 ar
   9    4   21 1
  10    5    6 ar
  11    5    7 1
  12    6   22 1
  13    7    8 1
  14    7   11 2
  15    8    9 1
  16    8   23 1
  17    8   24 1
  18    9   10 1
  19    9   25 1
  20    9   26 1
  21   10   12 1
  22   10   16 1
  23   12   13 1
  24   12   27 1
  25   12   28 1
  26   13   14 1
  27   13   29 1
  28   13   30 1
  29   14   15 1
  30   15   16 1
  31   15   31 1
  32   15   32 1
  33   16   33 1
  34   16   34 1
  35   17   18 2
  36   17   35 1
  37   18   19 1
  38   18   36 1

#	End of record

