#	Name: ASD01880822
#	Creating user name:	WinNT
#	Creation time:	15. 06. 2019 19:41

#	Modifying user name:	WinNT
#	Modification time:	15. 06. 2019 19:41

#	Program:	/corina/corina34_cracker 3.40 0067  02.08.2006

@<TRIPOS>MOLECULE
ASD01880822
  57   60    0    0    0
SMALL
NO_CHARGES


@<TRIPOS>ATOM
   1 N1             0.3128     1.3240    -0.8035 N.ar    
   2 C2             0.2633     0.0089    -0.7421 C.ar    
   3 N3             1.0707    -0.6813     0.0380 N.ar    
   4 C4             1.9713    -0.0737     0.7974 C.ar    
   5 C5             2.0597     1.3043     0.7658 C.ar    
   6 C6             1.1896     2.0052    -0.0715 C.ar    
   7 C7             3.0701     2.0331     1.6139 C.3     
   8 O8             4.3013     2.1452     0.8972 O.3     
   9 C9             5.3236     2.7801     1.5244 C.ar    
  10 C10            6.5502     2.9241     0.8832 C.ar    
  11 C11            7.5834     3.5670     1.5186 C.ar    
  12 C12            7.4115     4.0796     2.8087 C.ar    
  13 C13            6.1774     3.9326     3.4480 C.ar    
  14 C14            5.1428     3.2911     2.8041 C.ar    
  15 C15            9.0027     3.8858     1.1194 C.3     
  16 N16            9.5977     4.5980     2.2559 N.am    
  17 C17            8.6763     4.7077     3.2283 C.2     
  18 O18            8.8604     5.2487     4.3014 O.2     
  19 C19           -0.7448    -0.7265    -1.5869 C.3     
  20 C20            2.8873    -0.8765     1.6847 C.3     
  21 C21            5.9778     4.4792     4.8381 C.3     
  22 N22            1.2391     3.3881    -0.1390 N.3     
  23 C23            0.0107     3.9864     0.4035 C.3     
  24 C24            0.1323     5.5120     0.3648 C.3     
  25 O25            0.3911     5.9307    -0.9780 O.3     
  26 C26            1.5806     5.3673    -1.5375 C.3     
  27 C27            1.4737     3.8402    -1.5181 C.3     
  28 C28           11.0100     6.5385     1.7851 C.3     
  29 C29           10.9705     5.1057     2.3204 C.3     
  30 H30            2.6953     3.0289     1.8503 H       
  31 H31            3.2365     1.4788     2.5376 H       
  32 H32            6.6893     2.5303    -0.1127 H       
  33 H33            4.1892     3.1781     3.2985 H       
  34 H34            9.5528     2.9652     0.9246 H       
  35 H35            9.0092     4.5213     0.2339 H       
  36 H36           -0.3030    -0.9653    -2.5544 H       
  37 H37           -1.0374    -1.6481    -1.0837 H       
  38 H38           -1.6233    -0.0981    -1.7338 H       
  39 H39            3.7934    -1.1319     1.1353 H       
  40 H40            3.1492    -0.2879     2.5640 H       
  41 H41            2.3818    -1.7904     1.9967 H       
  42 H42            5.6176     5.5061     4.7765 H       
  43 H43            5.2461     3.8686     5.3670 H       
  44 H44            6.9255     4.4583     5.3763 H       
  45 H45           -0.8428     3.6739    -0.1981 H       
  46 H46           -0.1297     3.6585     1.4335 H       
  47 H47           -0.7983     5.9603     0.7128 H       
  48 H48            0.9526     5.8282     1.0091 H       
  49 H49            1.6975     5.7109    -2.5653 H       
  50 H50            2.4431     5.6793    -0.9485 H       
  51 H51            2.4012     3.4056    -1.8908 H       
  52 H52            0.6436     3.5254    -2.1505 H       
  53 H53           12.0313     6.9162     1.8331 H       
  54 H54           10.6667     6.5495     0.7507 H       
  55 H55           10.3601     7.1705     2.3903 H       
  56 H56           11.3137     5.0947     3.3549 H       
  57 H57           11.6204     4.4737     1.7152 H       
@<TRIPOS>BOND
   1    1    2 ar
   2    1    6 ar
   3    2    3 ar
   4    2   19 1
   5    3    4 ar
   6    4    5 ar
   7    4   20 1
   8    5    6 ar
   9    5    7 1
  10    6   22 1
  11    7    8 1
  12    7   30 1
  13    7   31 1
  14    8    9 1
  15    9   10 ar
  16    9   14 ar
  17   10   11 ar
  18   10   32 1
  19   11   12 ar
  20   11   15 1
  21   12   13 ar
  22   12   17 1
  23   13   14 ar
  24   13   21 1
  25   14   33 1
  26   15   16 1
  27   15   34 1
  28   15   35 1
  29   16   17 am
  30   16   29 1
  31   17   18 2
  32   19   36 1
  33   19   37 1
  34   19   38 1
  35   20   39 1
  36   20   40 1
  37   20   41 1
  38   21   42 1
  39   21   43 1
  40   21   44 1
  41   22   23 1
  42   22   27 1
  43   23   24 1
  44   23   45 1
  45   23   46 1
  46   24   25 1
  47   24   47 1
  48   24   48 1
  49   25   26 1
  50   26   27 1
  51   26   49 1
  52   26   50 1
  53   27   51 1
  54   27   52 1
  55   28   29 1
  56   28   53 1
  57   28   54 1
  58   28   55 1
  59   29   56 1
  60   29   57 1

#	End of record

