#	Name: ASD03240585
#	Creating user name:	WinNT
#	Creation time:	15. 06. 2019 20:35

#	Modifying user name:	WinNT
#	Modification time:	15. 06. 2019 20:35

#	Program:	/corina/corina34_cracker 3.40 0067  02.08.2006

@<TRIPOS>MOLECULE
ASD03240585
  64   70    0    0    0
SMALL
NO_CHARGES


@<TRIPOS>ATOM
   1 C1            -0.0166     1.3755     0.0096 C.ar    
   2 C2             0.0021    -0.0041     0.0020 C.ar    
   3 N3             1.1422    -0.6683    -0.0054 N.ar    
   4 C4             2.3145    -0.0481    -0.0053 C.ar    
   5 C5             2.3702     1.3442    -0.0124 C.ar    
   6 C6             1.1860     2.0698     0.0019 C.ar    
   7 N7             3.4819    -0.8058     0.0228 N.pl3   
   8 C8             4.3587    -0.7194     1.1006 C.ar    
   9 C9             4.9948     0.4889     1.4047 C.ar    
  10 C10            4.7638     1.6833     0.5627 C.2     
  11 N11            3.5938     2.0276    -0.0512 N.pl3   
  12 C12            4.6042    -1.8391     1.8843 C.ar    
  13 C13            5.4636    -1.7537     2.9629 C.ar    
  14 C14            6.0843    -0.5556     3.2719 C.ar    
  15 C15            5.8553     0.5652     2.4995 C.ar    
  16 N16            5.6755     2.5932     0.2863 N.2     
  17 C17            5.1453     3.5394    -0.5053 C.2     
  18 C18            3.8216     3.2023    -0.7365 C.2     
  19 C19            2.8482     3.9520    -1.5537 C.ar    
  20 C20            2.7483     5.3399    -1.4289 C.ar    
  21 C21            2.0260     3.2779    -2.4601 C.ar    
  22 C22            1.1184     3.9851    -3.2206 C.ar    
  23 C23            1.0211     5.3591    -3.0875 C.ar    
  24 C24            1.8362     6.0341    -2.1959 C.ar    
  25 C25            5.8479     4.7284    -1.0345 C.ar    
  26 C26            0.0272     6.1247    -3.9224 C.3     
  27 N27           -1.0510     5.2760    -4.4469 N.3     
  28 C28           -0.4747     7.4152    -3.2534 C.3     
  29 C29           -0.3885     8.0744    -4.6401 C.3     
  30 C30            0.6793     7.0213    -4.9882 C.3     
  31 C31            5.5372     5.2143    -2.3070 C.ar    
  32 C32            6.8180     5.3688    -0.2593 C.ar    
  33 C33            7.4666     6.4675    -0.7472 C.ar    
  34 C34            7.1598     6.9510    -2.0226 C.ar    
  35 C35            6.1855     6.3127    -2.7960 C.ar    
  36 C36            7.8599     8.1384    -2.5501 C.2     
  37 O37            8.7036     8.6963    -1.8753 O.2     
  38 N38            7.5640     8.6043    -3.7796 N.am    
  39 H39           -0.9556     1.9091     0.0170 H       
  40 H40           -0.9306    -0.5486     0.0025 H       
  41 H41            1.2001     3.1497     0.0061 H       
  42 H42            3.6863    -1.4003    -0.7159 H       
  43 H43            4.1229    -2.7773     1.6508 H       
  44 H44            5.6521    -2.6274     3.5691 H       
  45 H45            6.7501    -0.4976     4.1203 H       
  46 H46            6.3409     1.4988     2.7425 H       
  47 H47            3.3836     5.8679    -0.7332 H       
  48 H48            2.1012     2.2056    -2.5652 H       
  49 H49            0.4824     3.4654    -3.9219 H       
  50 H50            1.7546     7.1064    -2.0970 H       
  51 H51           -0.6774     4.4545    -4.8982 H       
  52 H52           -1.7003     5.0239    -3.7169 H       
  53 H53           -1.4916     7.3402    -2.8681 H       
  54 H54            0.2243     7.8313    -2.5279 H       
  55 H55           -1.3021     7.9783    -5.2268 H       
  56 H56           -0.0053     9.0945    -4.6156 H       
  57 H57            1.6943     7.3292    -4.7373 H       
  58 H58            0.5929     6.6305    -6.0021 H       
  59 H59            4.7846     4.7212    -2.9043 H       
  60 H60            7.0549     4.9952     0.7260 H       
  61 H61            8.2160     6.9628    -0.1476 H       
  62 H62            5.9484     6.6856    -3.7814 H       
  63 H63            6.8909     8.1592    -4.3179 H       
  64 H64            8.0241     9.3847    -4.1263 H       
@<TRIPOS>BOND
   1    1    2 ar
   2    1    6 ar
   3    1   39 1
   4    2    3 ar
   5    2   40 1
   6    3    4 ar
   7    4    5 ar
   8    4    7 1
   9    5    6 ar
  10    5   11 1
  11    6   41 1
  12    7    8 1
  13    7   42 1
  14    8    9 ar
  15    8   12 ar
  16    9   10 1
  17    9   15 ar
  18   10   11 1
  19   10   16 2
  20   11   18 1
  21   12   13 ar
  22   12   43 1
  23   13   14 ar
  24   13   44 1
  25   14   15 ar
  26   14   45 1
  27   15   46 1
  28   16   17 1
  29   17   18 2
  30   17   25 1
  31   18   19 1
  32   19   20 ar
  33   19   21 ar
  34   20   24 ar
  35   20   47 1
  36   21   22 ar
  37   21   48 1
  38   22   23 ar
  39   22   49 1
  40   23   24 ar
  41   23   26 1
  42   24   50 1
  43   25   32 ar
  44   25   31 ar
  45   26   27 1
  46   26   28 1
  47   26   30 1
  48   27   51 1
  49   27   52 1
  50   28   29 1
  51   28   53 1
  52   28   54 1
  53   29   30 1
  54   29   55 1
  55   29   56 1
  56   30   57 1
  57   30   58 1
  58   31   35 ar
  59   31   59 1
  60   32   33 ar
  61   32   60 1
  62   33   34 ar
  63   33   61 1
  64   34   35 ar
  65   34   36 1
  66   35   62 1
  67   36   37 2
  68   36   38 am
  69   38   63 1
  70   38   64 1

#	End of record

