#	Name: ASD02408438
#	Creating user name:	WinNT
#	Creation time:	15. 06. 2019 20:21

#	Modifying user name:	WinNT
#	Modification time:	15. 06. 2019 20:21

#	Program:	/corina/corina34_cracker 3.40 0067  02.08.2006

@<TRIPOS>MOLECULE
ASD02408438
  28   29    0    0    0
SMALL
NO_CHARGES


@<TRIPOS>ATOM
   1 C1            -0.0168     1.3880     0.0097 C.2     
   2 C2             0.0021    -0.0041     0.0020 C.2     
   3 N3            -1.2819    -0.4187     0.0120 N.pl3   
   4 N4            -2.1115     0.7077     0.0260 N.2     
   5 C5            -1.3746     1.7829     0.0309 C.2     
   6 C6            -1.7314    -1.8131     0.0084 C.3     
   7 C7            -2.5623    -2.0843     1.2642 C.3     
   8 C8            -3.0317    -3.5405     1.2604 C.3     
   9 C9            -3.8867    -3.7975     0.0179 C.3     
  10 C10           -3.0558    -3.5263    -1.2379 C.3     
  11 C11           -2.5864    -2.0701    -1.2341 C.3     
  12 N12            1.1247    -0.8097    -0.0134 N.pl3   
  13 C13            1.1226     2.2554     0.0035 C.1     
  14 N14            2.0265     2.9435    -0.0015 N.1     
  15 H15           -1.7382     2.7998     0.0414 H       
  16 H16           -0.8649    -2.4741    -0.0037 H       
  17 H17           -1.9532    -1.9013     2.1494 H       
  18 H18           -3.4289    -1.4233     1.2763 H       
  19 H19           -2.1652    -4.2016     1.2482 H       
  20 H20           -3.6236    -3.7338     2.1550 H       
  21 H21           -4.2211    -4.8350     0.0151 H       
  22 H22           -4.7533    -3.1365     0.0300 H       
  23 H23           -2.1893    -4.1873    -1.2501 H       
  24 H24           -3.6649    -3.7093    -2.1231 H       
  25 H25           -3.4530    -1.4090    -1.2220 H       
  26 H26           -1.9945    -1.8768    -2.1288 H       
  27 H27            2.0085    -0.4099    -0.0197 H       
  28 H28            1.0289    -1.7749    -0.0180 H       
@<TRIPOS>BOND
   1    1    2 2
   2    1   13 1
   3    1    5 1
   4    2    3 1
   5    2   12 1
   6    3    4 1
   7    3    6 1
   8    4    5 2
   9    5   15 1
  10    6    7 1
  11    6   11 1
  12    6   16 1
  13    7    8 1
  14    7   17 1
  15    7   18 1
  16    8    9 1
  17    8   19 1
  18    8   20 1
  19    9   10 1
  20    9   21 1
  21    9   22 1
  22   10   11 1
  23   10   23 1
  24   10   24 1
  25   11   25 1
  26   11   26 1
  27   12   27 1
  28   12   28 1
  29   13   14 3

#	End of record

