#	Name: ASD03730058
#	Creating user name:	WinNT
#	Creation time:	15. 06. 2019 20:43

#	Modifying user name:	WinNT
#	Modification time:	15. 06. 2019 20:43

#	Program:	/corina/corina34_cracker 3.40 0067  02.08.2006

@<TRIPOS>MOLECULE
ASD03730058
  52   57    0    0    0
SMALL
NO_CHARGES


@<TRIPOS>ATOM
   1 C1            -0.0197     1.5006     0.0374 C.2     
   2 C2            -0.0021    -0.0063     0.0427 C.3     
   3 O3             1.0235     2.1192     0.0442 O.2     
   4 N4            -1.1946     2.1607     0.0195 N.am    
   5 O5             6.2085     2.8840     2.2256 O.3     
   6 C6             7.6245     2.8273     2.4801 C.3     
   7 O7             7.8252     1.5015     3.0045 O.3     
   8 C8             6.8222     0.7422     2.4732 C.ar    
   9 C9             5.8279     1.5929     1.9953 C.ar    
  10 C10            6.6751    -0.6282     2.3558 C.ar    
  11 C11            5.5369    -1.1671     1.7636 C.ar    
  12 C12            4.5468    -0.3075     1.2975 C.ar    
  13 C13            4.6932     1.0596     1.4075 C.ar    
  14 O14            5.2063    -2.4707     1.5364 O.3     
  15 C15            3.4488    -1.1770     0.7458 C.3     
  16 C16            3.7884    -2.5671     1.3004 C.3     
  17 N17            1.3846    -0.4785     0.0562 N.am    
  18 C18            2.0872    -0.7176     1.1814 C.2     
  19 C19            3.4113    -1.1666    -0.7536 C.ar    
  20 C20            4.3300    -1.4792    -1.7305 C.ar    
  21 C21            3.9869    -1.3665    -3.0661 C.ar    
  22 C22            2.7195    -0.9384    -3.4174 C.ar    
  23 C23            1.7961    -0.6231    -2.4426 C.ar    
  24 C24            2.1326    -0.7341    -1.0956 C.ar    
  25 O25            1.6961    -0.5877     2.3221 O.2     
  26 C26           -1.2153     3.5552     0.1328 C.ar    
  27 C27           -2.1866     4.2925    -0.5312 C.ar    
  28 C28           -2.2042     5.6708    -0.4171 C.ar    
  29 C29           -1.2537     6.3141     0.3588 C.ar    
  30 C30           -0.2861     5.5810     1.0197 C.ar    
  31 C31           -0.2679     4.2037     0.9140 C.ar    
  32 C32           -3.2200     3.5921    -1.3754 C.3     
  33 F33           -3.1482     6.3899    -1.0627 F       
  34 H34           -0.5193    -0.3726     0.9295 H       
  35 H35           -0.5041    -0.3787    -0.8503 H       
  36 H36           -2.0258     1.6691    -0.0720 H       
  37 H37            8.1855     2.9623     1.5554 H       
  38 H38            7.9116     3.5779     3.2165 H       
  39 H39            7.4488    -1.2844     2.7263 H       
  40 H40            3.9207     1.7158     1.0345 H       
  41 H41            3.5702    -3.3413     0.5648 H       
  42 H42            3.2529    -2.7539     2.2312 H       
  43 H43            5.3192    -1.8131    -1.4539 H       
  44 H44            4.7069    -1.6125    -3.8325 H       
  45 H45            2.4518    -0.8503    -4.4599 H       
  46 H46            0.8086    -0.2890    -2.7247 H       
  47 H47           -1.2686     7.3904     0.4470 H       
  48 H48            0.4538     6.0853     1.6235 H       
  49 H49            0.4858     3.6318     1.4349 H       
  50 H50           -4.0861     3.3472    -0.7606 H       
  51 H51           -3.5268     4.2464    -2.1913 H       
  52 H52           -2.7944     2.6759    -1.7848 H       
@<TRIPOS>BOND
   1    1    2 1
   2    1    3 2
   3    1    4 am
   4    2   17 1
   5    2   34 1
   6    2   35 1
   7    4   26 1
   8    4   36 1
   9    5    6 1
  10    5    9 1
  11    6    7 1
  12    6   37 1
  13    6   38 1
  14    7    8 1
  15    8    9 ar
  16    8   10 ar
  17    9   13 ar
  18   10   11 ar
  19   10   39 1
  20   11   12 ar
  21   11   14 1
  22   12   13 ar
  23   12   15 1
  24   13   40 1
  25   14   16 1
  26   15   16 1
  27   15   18 1
  28   15   19 1
  29   16   41 1
  30   16   42 1
  31   17   18 am
  32   17   24 1
  33   18   25 2
  34   19   20 ar
  35   19   24 ar
  36   20   21 ar
  37   20   43 1
  38   21   22 ar
  39   21   44 1
  40   22   23 ar
  41   22   45 1
  42   23   24 ar
  43   23   46 1
  44   26   27 ar
  45   26   31 ar
  46   27   28 ar
  47   27   32 1
  48   28   29 ar
  49   28   33 1
  50   29   30 ar
  51   29   47 1
  52   30   31 ar
  53   30   48 1
  54   31   49 1
  55   32   50 1
  56   32   51 1
  57   32   52 1

#	End of record

