#	Name: ASD02560379
#	Creating user name:	WinNT
#	Creation time:	15. 06. 2019 20:25

#	Modifying user name:	WinNT
#	Modification time:	15. 06. 2019 20:25

#	Program:	/corina/corina34_cracker 3.40 0067  02.08.2006

@<TRIPOS>MOLECULE
ASD02560379
  38   41    0    0    0
SMALL
NO_CHARGES


@<TRIPOS>ATOM
   1 C1            -0.2692     0.6175     1.4227 C.2     
   2 C2            -0.1015    -0.7113     0.9937 C.2     
   3 C3             1.1187    -1.1657     0.6449 C.2     
   4 N4             2.2113    -0.3427     0.7021 N.pl3   
   5 C5             2.0780     0.9625     1.1175 C.2     
   6 C6             0.8052     1.4480     1.4853 C.2     
   7 C7             3.5322    -0.5442     0.4113 C.2     
   8 C8             4.1811     0.6475     0.6563 C.2     
   9 N9             3.2684     1.5391     1.0832 N.2     
  10 C10            5.6307     0.9017     0.4807 C.ar    
  11 N11            4.1123    -1.7289    -0.0453 N.3     
  12 C12            3.0989    -2.6242    -0.6192 C.3     
  13 C13            7.9027     0.1309     0.5801 C.ar    
  14 C14            6.5545    -0.1092     0.7445 C.ar    
  15 C15            6.0736     2.1505     0.0459 C.ar    
  16 C16            7.4233     2.3836    -0.1163 C.ar    
  17 C17            8.3404     1.3767     0.1522 C.ar    
  18 O18            9.6698     1.6097    -0.0091 O.3     
  19 C19           10.5581     0.5297     0.2850 C.3     
  20 C20            3.5930    -3.8769    -1.3456 C.3     
  21 C21            2.9259    -4.0009     0.0257 C.3     
  22 H22           -1.2493     0.9783     1.6972 H       
  23 H23           -0.9549    -1.3714     0.9438 H       
  24 H24            1.2356    -2.1883     0.3177 H       
  25 H25            0.6856     2.4701     1.8129 H       
  26 H26            4.8460    -1.5390    -0.7115 H       
  27 H27            2.2064    -2.1352    -1.0094 H       
  28 H28            8.6187    -0.6514     0.7846 H       
  29 H29            6.2146    -1.0788     1.0774 H       
  30 H30            5.3606     2.9342    -0.1639 H       
  31 H31            7.7671     3.3505    -0.4530 H       
  32 H32           11.5865     0.8486     0.1151 H       
  33 H33           10.4371     0.2332     1.3269 H       
  34 H34           10.3283    -0.3164    -0.3625 H       
  35 H35            3.0252    -4.2121    -2.2136 H       
  36 H36            4.6699    -4.0366    -1.3978 H       
  37 H37            3.5641    -4.2422     0.8758 H       
  38 H38            1.9194    -4.4177     0.0599 H       
@<TRIPOS>BOND
   1    1    2 1
   2    1    6 2
   3    1   22 1
   4    2    3 2
   5    2   23 1
   6    3    4 1
   7    3   24 1
   8    4    5 1
   9    4    7 1
  10    5    6 1
  11    5    9 2
  12    6   25 1
  13    7    8 2
  14    7   11 1
  15    8    9 1
  16    8   10 1
  17   10   15 ar
  18   10   14 ar
  19   11   12 1
  20   11   26 1
  21   12   20 1
  22   12   21 1
  23   12   27 1
  24   13   14 ar
  25   13   17 ar
  26   13   28 1
  27   14   29 1
  28   15   16 ar
  29   15   30 1
  30   16   17 ar
  31   16   31 1
  32   17   18 1
  33   18   19 1
  34   19   32 1
  35   19   33 1
  36   19   34 1
  37   20   21 1
  38   20   35 1
  39   20   36 1
  40   21   37 1
  41   21   38 1

#	End of record

