#	Name: ASD07110026
#	Creating user name:	WinNT
#	Creation time:	15. 06. 2019 21:09

#	Modifying user name:	WinNT
#	Modification time:	15. 06. 2019 21:09

#	Program:	/corina/corina34_cracker 3.40 0067  02.08.2006

@<TRIPOS>MOLECULE
ASD07110026
 442  450    0    0    0
SMALL
NO_CHARGES


@<TRIPOS>ATOM
   1 C1           -10.1872    14.8474    -4.7134 C.2     
   2 O2           -10.8608    13.9712    -4.2140 O.2     
   3 N3           -12.0374    16.3161    -4.1433 N.3     
   4 C4           -10.7056    16.2617    -4.7610 C.3     
   5 C5            -8.1942    12.7175    -3.8250 C.2     
   6 O6            -8.5721    13.3934    -2.8916 O.2     
   7 N7            -8.9727    14.5574    -5.2207 N.am    
   8 C8            -8.3452    13.2280    -5.2348 C.3     
   9 C9            -6.9559    13.3840    -5.8882 C.3     
  10 C10           -6.6473    14.8920    -5.6927 C.3     
  11 C11           -8.0562    15.5196    -5.8590 C.3     
  12 C12           -6.3620    10.0184    -2.1753 C.2     
  13 O13           -5.7402     9.7502    -3.1815 O.2     
  14 N14           -7.6392    11.5098    -3.6014 N.am    
  15 C15           -7.4924    11.0135    -2.2309 C.3     
  16 C16           -8.7915    10.3346    -1.7924 C.3     
  17 O17           -9.0155     9.1725    -2.5933 O.3     
  18 C18           -5.1564     7.5209     0.2063 C.2     
  19 O19           -5.8900     7.8403     1.1177 O.2     
  20 N20           -6.0420     9.4266    -1.0075 N.am    
  21 C21           -4.9431     8.4592    -0.9535 C.3     
  22 C22           -3.6181     9.2022    -0.7714 C.3     
  23 C23           -3.3098    10.0118    -2.0326 C.3     
  24 C24           -2.0620    10.8656    -1.7982 C.3     
  25 C25           -3.0626     9.0580    -3.2031 C.3     
  26 C26           -4.5433     5.6274    -2.1039 C.2     
  27 O27           -5.6917     6.0172    -2.1153 O.2     
  28 N28           -4.5319     6.3269     0.2307 N.am    
  29 C29           -3.7130     5.7658    -0.8538 C.3     
  30 C30           -3.2276     4.3764    -0.3897 C.3     
  31 C31           -4.2639     3.9921     0.6993 C.3     
  32 C32           -4.5514     5.3698     1.3519 C.3     
  33 C33           -5.6528     3.6071    -4.2328 C.2     
  34 O34           -5.5501     2.9479    -3.2200 O.2     
  35 N35           -4.0096     5.0704    -3.2090 N.am    
  36 C36           -4.8389     4.8646    -4.3990 C.3     
  37 C37           -3.9403     4.7314    -5.6301 C.3     
  38 C38           -3.1670     6.0096    -5.8282 C.2     
  39 C39           -3.5278     7.0505    -6.5952 C.2     
  40 N40           -2.5764     8.0316    -6.5279 N.pl3   
  41 C41           -1.5541     7.6360    -5.6946 C.ar    
  42 C42           -0.3685     8.2350    -5.2825 C.ar    
  43 C43            0.4710     7.5673    -4.4176 C.ar    
  44 C44            0.1458     6.3010    -3.9520 C.ar    
  45 C45           -1.0138     5.6936    -4.3444 C.ar    
  46 C46           -1.8819     6.3545    -5.2152 C.ar    
  47 C47           -7.6429     1.4426    -6.4047 C.2     
  48 O48           -7.7120     2.1850    -7.3612 O.2     
  49 N49           -6.4946     3.2153    -5.2096 N.am    
  50 C50           -7.2858     1.9929    -5.0480 C.3     
  51 C51           -8.5664     2.3128    -4.2742 C.3     
  52 C52           -8.2156     2.7012    -2.8610 C.ar    
  53 C53           -7.9715     4.0261    -2.5498 C.ar    
  54 C54           -7.6493     4.3847    -1.2552 C.ar    
  55 C55           -7.5713     3.4143    -0.2669 C.ar    
  56 O56           -7.2550     3.7646     1.0075 O.3     
  57 C57           -7.8171     2.0857    -0.5816 C.ar    
  58 C58           -8.1440     1.7329    -1.8766 C.ar    
  59 C59           -9.6681     0.0577    -8.2154 C.2     
  60 O60          -10.1846     0.9341    -7.5549 O.2     
  61 N61           -7.8853     0.1253    -6.5551 N.am    
  62 C62           -8.3452    -0.5257    -7.7905 C.3     
  63 C63           -8.5091    -2.0290    -7.4826 C.3     
  64 C64           -8.6761    -2.0515    -5.9402 C.3     
  65 C65           -7.7272    -0.9022    -5.5099 C.3     
  66 C66          -12.0259    -0.5007   -11.0087 C.2     
  67 O67          -11.3480    -1.3690   -11.5162 O.2     
  68 N68          -10.2774    -0.3944    -9.3293 N.am    
  69 C69          -11.5635     0.1727    -9.7424 C.3     
  70 C70          -13.0383    -0.3326   -13.9913 C.2     
  71 O71          -12.2288     0.5671   -13.9121 O.2     
  72 N72          -13.1929    -0.1382   -11.5773 N.am    
  73 C73          -13.6962    -0.8661   -12.7448 C.3     
  74 C74          -15.2112    -0.6795   -12.8480 C.3     
  75 C75          -15.8800    -1.3394   -11.6698 C.2     
  76 O76          -15.2226    -1.9906   -10.8858 O.2     
  77 N77          -17.2087    -1.2059   -11.4873 N.am    
  78 C78          -13.6000    -0.5958   -17.5938 C.2     
  79 O79          -14.6638    -1.1585   -17.4432 O.2     
  80 N80          -13.3495    -0.8551   -15.1940 N.am    
  81 C81          -12.7100    -0.3365   -16.4057 C.3     
  82 C82          -11.3658    -1.0373   -16.6128 C.3     
  83 C83          -10.4188    -0.6728   -15.4676 C.3     
  84 C84           -9.0746    -1.3736   -15.6747 C.3     
  85 N85           -8.1679    -1.0247   -14.5782 N.pl3   
  86 C86           -6.8935    -1.5396   -14.5497 C.2     
  87 N87           -6.0868    -1.2291   -13.5741 N.2     
  88 N88           -6.4700    -2.3821   -15.5502 N.pl3   
  89 C89          -13.2422    -0.5095   -21.2308 C.2     
  90 O90          -12.1919     0.0945   -21.2851 O.2     
  91 N91          -13.2138    -0.2025   -18.8237 N.am    
  92 C92          -14.0791    -0.4546   -19.9787 C.3     
  93 C93          -15.1071     0.6718   -20.1014 C.3     
  94 C94          -12.5972    -0.1292   -24.1867 C.2     
  95 O95          -12.9741     0.9036   -23.6748 O.2     
  96 N96          -13.6609    -1.2298   -22.2902 N.am    
  97 C97          -12.9022    -1.4508   -23.5299 C.3     
  98 C98          -13.7852    -2.3082   -24.4609 C.3     
  99 C99          -15.2158    -2.0479   -23.9197 C.3     
 100 C100         -14.9531    -1.9318   -22.3952 C.3     
 101 C101         -11.4092     0.9813   -27.4606 C.2     
 102 O102         -11.5048    -0.1309   -27.9347 O.2     
 103 N103         -11.9057    -0.0950   -25.3431 N.am    
 104 C104         -11.6093     1.1898   -25.9816 C.3     
 105 C105         -10.3358     1.7800   -25.3728 C.3     
 106 C106         -10.5389     1.9916   -23.8712 C.3     
 107 C107          -9.1686     0.8169   -25.5988 C.3     
 108 C108         -10.0604     2.9300   -30.2439 C.2     
 109 O109          -9.6444     3.7988   -29.5070 O.2     
 110 N110         -11.1240     2.0309   -28.2566 N.am    
 111 C111         -10.9295     1.8283   -29.6944 C.3     
 112 C112         -12.2867     1.8491   -30.4006 C.3     
 113 C113         -13.1231     0.6563   -29.9332 C.3     
 114 C114         -14.4598     0.6768   -30.6288 C.2     
 115 O115         -14.7171     1.5554   -31.4174 O.2     
 116 O116         -15.3647    -0.2809   -30.3722 O.3     
 117 C117          -9.9521     5.1602   -32.5340 C.2     
 118 O118         -11.1458     5.0050   -32.3866 O.2     
 119 N119          -9.7453     2.9497   -31.5542 N.am    
 120 C120          -8.9934     4.0776   -32.1098 C.3     
 121 C121          -8.1881     3.6058   -33.3222 C.3     
 122 C122          -7.1268     2.6347   -32.8733 C.2     
 123 O123          -7.0751     2.2867   -31.7126 O.2     
 124 N124          -6.2350     2.1529   -33.7616 N.am    
 125 C125          -9.7895     8.2865   -34.4381 C.2     
 126 O126          -8.5834     8.3549   -34.5451 O.2     
 127 N127          -9.4828     6.3010   -33.0771 N.am    
 128 C128         -10.4037     7.3972   -33.3880 C.3     
 129 C129         -10.6713     8.2131   -32.1216 C.3     
 130 C130         -11.6872     9.3148   -32.4300 C.3     
 131 C131         -13.0423     8.6828   -32.7542 C.3     
 132 C132         -11.8300    10.2318   -31.2136 C.3     
 133 C133         -10.9054    10.9195   -36.7153 C.2     
 134 O134         -11.9487    11.0728   -36.1160 O.2     
 135 N135         -10.5806     9.0060   -35.2585 N.am    
 136 C136          -9.9899     9.7782   -36.3544 C.3     
 137 C137          -9.8001     8.8719   -37.5724 C.3     
 138 C138          -8.7746     7.7849   -37.2444 C.3     
 139 C139          -8.5877     6.8922   -38.4441 C.2     
 140 O140          -9.2108     7.1037   -39.4574 O.2     
 141 O141          -7.7290     5.8621   -38.3869 O.3     
 142 C142         -11.2133    13.2839   -39.4862 C.2     
 143 O143         -10.3797    12.7027   -40.1481 O.2     
 144 N144         -10.5649    11.7698   -37.7039 N.am    
 145 C145         -11.4550    12.8793   -38.0548 C.3     
 146 C146         -11.1744    14.0688   -37.1343 C.3     
 147 C147         -11.5385    13.6973   -35.6954 C.3     
 148 C148         -11.2580    14.8868   -34.7749 C.3     
 149 N149         -11.6066    14.5310   -33.3972 N.pl3   
 150 C150         -11.4384    15.4481   -32.3869 C.2     
 151 N151         -10.9688    16.6341   -32.6548 N.2     
 152 N152         -11.7656    15.1142   -31.0940 N.pl3   
 153 C153         -12.0935    16.1239   -41.6128 C.2     
 154 O154         -12.5350    16.7585   -40.6783 O.2     
 155 N155         -11.9235    14.2916   -40.0307 N.am    
 156 C156         -11.6885    14.6849   -41.4223 C.3     
 157 C157         -12.5171    13.7947   -42.3507 C.3     
 158 C158         -12.0289    12.3725   -42.2505 C.ar    
 159 C159         -12.5812    11.5163   -41.3163 C.ar    
 160 C160         -12.1334    10.2117   -41.2243 C.ar    
 161 C161         -11.1335     9.7632   -42.0669 C.ar    
 162 C162         -10.5818    10.6191   -43.0017 C.ar    
 163 C163         -11.0326    11.9225   -43.0966 C.ar    
 164 C164         -13.7391    18.3276   -43.1560 C.2     
 165 O165         -14.4818    17.3688   -43.1464 O.2     
 166 N166         -11.9652    16.7057   -42.8218 N.am    
 167 C167         -12.2549    18.1327   -42.9824 C.3     
 168 C168         -11.5229    18.6661   -44.2155 C.3     
 169 C169         -10.0352    18.6028   -43.9830 C.2     
 170 O170          -9.6045    18.2713   -42.8988 O.2     
 171 N171          -9.1835    18.9147   -44.9799 N.am    
 172 C172         -15.9027    19.6777   -45.0871 C.2     
 173 O173         -14.9699    19.4940   -45.8402 O.2     
 174 N174         -14.2412    19.5673   -43.3218 N.am    
 175 C175         -15.6681    19.7485   -43.6002 C.3     
 176 C176         -16.1205    21.1131   -43.0768 C.3     
 177 C177         -15.9521    21.1581   -41.5800 C.2     
 178 O178         -15.6121    20.1618   -40.9778 O.2     
 179 N179         -16.1795    22.3055   -40.9104 N.am    
 180 C180         -18.4795    20.5885   -47.4580 C.2     
 181 O181         -18.9919    21.3422   -46.6578 O.2     
 182 N182         -17.1491    19.8186   -45.5801 N.am    
 183 C183         -17.3941    19.6422   -47.0137 C.3     
 184 C184         -17.8322    18.2012   -47.2827 C.3     
 185 C185         -19.0137    17.8497   -46.3764 C.3     
 186 C186         -20.2311    18.6845   -46.7790 C.3     
 187 C187         -16.6677    17.2517   -46.9937 C.3     
 188 C188         -20.5389    21.0884   -50.4472 C.2     
 189 O189         -19.9929    20.2614   -51.1464 O.2     
 190 N190         -18.8810    20.5971   -48.7446 N.am    
 191 C191         -19.8564    21.5903   -49.2009 C.3     
 192 C192         -19.1389    22.9065   -49.5073 C.3     
 193 C193         -20.1717    23.9842   -49.8432 C.3     
 194 C194         -21.0107    24.2914   -48.6012 C.3     
 195 C195         -19.4525    25.2550   -50.3000 C.3     
 196 C196         -23.3635    22.1896   -52.4898 C.2     
 197 O197         -23.5262    23.1906   -51.8246 O.2     
 198 N198         -21.7561    21.5584   -50.7848 N.am    
 199 C199         -22.3807    21.1387   -52.0418 C.3     
 200 C200         -23.1135    19.8126   -51.8293 C.3     
 201 C201         -22.0990    18.7170   -51.4958 C.3     
 202 C202         -22.8397    17.4207   -51.1613 C.3     
 203 C203         -21.1841    18.4854   -52.7001 C.3     
 204 C204         -26.0653    22.4046   -54.9427 C.2     
 205 O205         -26.0189    21.2163   -55.1809 O.2     
 206 N206         -24.0616    22.0171   -53.6297 N.am    
 207 C207         -25.0170    23.0387   -54.0652 C.3     
 208 C208         -24.2800    24.1233   -54.8535 C.3     
 209 C209         -23.3028    24.8512   -53.9282 C.3     
 210 C210         -22.5769    25.9195   -54.7047 C.2     
 211 O211         -22.8174    26.0826   -55.8821 O.2     
 212 N212         -21.6604    26.6937   -54.0906 N.am    
 213 C213         -27.5702    22.4799   -57.7352 C.2     
 214 O214         -26.4730    22.9070   -58.0062 O.2     
 215 N215         -27.0544    23.1580   -55.4629 N.am    
 216 C216         -28.0734    22.5416   -56.3160 C.3     
 217 C217         -29.3545    23.3766   -56.2650 C.3     
 218 C218         -29.9247    23.3370   -54.8706 C.ar    
 219 C219         -29.5430    24.2873   -53.9416 C.ar    
 220 C220         -30.0639    24.2529   -52.6626 C.ar    
 221 C221         -30.9711    23.2641   -52.3107 C.ar    
 222 O222         -31.4853    23.2284   -51.0533 O.3     
 223 C223         -31.3528    22.3120   -53.2448 C.ar    
 224 C224         -30.8330    22.3538   -54.5240 C.ar    
 225 O225         -28.3410    21.9504   -58.6981 O.3     
 226 H226         -12.0138    15.9564    -3.2009 H       
 227 H227         -12.4069    17.2548    -4.1629 H       
 228 H228         -10.0255    16.9165    -4.2164 H       
 229 H229         -10.7727    16.5893    -5.7985 H       
 230 H230          -8.9551    12.5363    -5.8160 H       
 231 H231          -6.2168    12.7694    -5.3743 H       
 232 H232          -6.9977    13.1332    -6.9481 H       
 233 H233          -6.2459    15.0828    -4.6974 H       
 234 H234          -5.9666    15.2545    -6.4629 H       
 235 H235          -8.3010    15.6335    -6.9151 H       
 236 H236          -8.1041    16.4831    -5.3516 H       
 237 H237          -7.3370    10.9692    -4.3480 H       
 238 H238          -7.2752    11.8477    -1.5637 H       
 239 H239          -8.7141    10.0444    -0.7446 H       
 240 H240          -9.6236    11.0276    -1.9169 H       
 241 H241          -9.8238     8.6909    -2.3701 H       
 242 H242          -6.5393     9.6411    -0.2028 H       
 243 H243          -4.9152     7.8889    -1.8819 H       
 244 H244          -3.6932     9.8750     0.0829 H       
 245 H245          -2.8186     8.4820    -0.5975 H       
 246 H246          -4.1552    10.6597    -2.2641 H       
 247 H247          -1.2166    10.2177    -1.5667 H       
 248 H248          -1.8424    11.4423    -2.6967 H       
 249 H249          -2.2381    11.5451    -0.9643 H       
 250 H250          -2.2549     8.3718    -2.9483 H       
 251 H251          -3.9706     8.4905    -3.4074 H       
 252 H252          -2.7862     9.6321    -4.0875 H       
 253 H253          -2.8584     6.4143    -1.0466 H       
 254 H254          -3.2524     3.6639    -1.2142 H       
 255 H255          -2.2263     4.4402     0.0363 H       
 256 H256          -5.1645     3.5728     0.2508 H       
 257 H257          -3.8319     3.3013     1.4233 H       
 258 H258          -3.7759     5.6182     2.0763 H       
 259 H259          -5.5310     5.3655     1.8300 H       
 260 H260          -3.0764     4.8058    -3.2166 H       
 261 H261          -5.5075     5.7158    -4.5276 H       
 262 H262          -3.2448     3.9048    -5.4846 H       
 263 H263          -4.5549     4.5386    -6.5095 H       
 264 H264          -4.4346     7.1052    -7.1793 H       
 265 H265          -2.6163     8.8796    -6.9972 H       
 266 H266          -0.1064     9.2200    -5.6396 H       
 267 H267           1.3914     8.0340    -4.0990 H       
 268 H268           0.8148     5.7913    -3.2744 H       
 269 H269          -1.2601     4.7078    -3.9783 H       
 270 H270          -6.5767     3.7425    -6.0196 H       
 271 H271          -6.7039     1.2535    -4.4976 H       
 272 H272          -9.0873     3.1382    -4.7593 H       
 273 H273          -9.2114     1.4342    -4.2601 H       
 274 H274          -8.0324     4.7812    -3.3196 H       
 275 H275          -7.4580     5.4196    -1.0128 H       
 276 H276          -8.0204     3.9814     1.5573 H       
 277 H277          -7.7566     1.3283     0.1860 H       
 278 H278          -8.3398     0.6994    -2.1212 H       
 279 H279          -7.6074    -0.3850    -8.5804 H       
 280 H280          -9.3971    -2.4284    -7.9725 H       
 281 H281          -7.6197    -2.5832    -7.7824 H       
 282 H282          -9.7066    -1.8391    -5.6556 H       
 283 H283          -8.3464    -3.0041    -5.5254 H       
 284 H284          -6.6955    -1.2521    -5.4748 H       
 285 H285          -8.0275    -0.5060    -4.5399 H       
 286 H286          -9.8643    -1.0953    -9.8576 H       
 287 H287         -11.4486     1.2419    -9.9206 H       
 288 H288         -12.3006     0.0126    -8.9556 H       
 289 H289         -13.6996     0.6046   -11.2134 H       
 290 H290         -13.4671    -1.9264   -12.6385 H       
 291 H291         -15.4469     0.3847   -12.8505 H       
 292 H292         -15.5712    -1.1335   -13.7713 H       
 293 H293         -17.7344    -0.6850   -12.1143 H       
 294 H294         -17.6392    -1.6306   -10.7289 H       
 295 H295         -13.9970    -1.5747   -15.2573 H       
 296 H296         -12.5480     0.7363   -16.3003 H       
 297 H297         -11.5174    -2.1166   -16.6293 H       
 298 H298         -10.9311    -0.7169   -17.5596 H       
 299 H299         -10.2672     0.4064   -15.4511 H       
 300 H300         -10.8535    -0.9932   -14.5208 H       
 301 H301          -9.2263    -2.4529   -15.6913 H       
 302 H302          -8.6399    -1.0533   -16.6216 H       
 303 H303          -8.4667    -0.4303   -13.8723 H       
 304 H304          -5.1876    -1.5925   -13.5540 H       
 305 H305          -7.0703    -2.6131   -16.2762 H       
 306 H306          -5.5708    -2.7454   -15.5301 H       
 307 H307         -12.3630     0.2475   -18.9441 H       
 308 H308         -14.5957    -1.4051   -19.8451 H       
 309 H309         -14.5915     1.6312   -20.1442 H       
 310 H310         -15.6918     0.5327   -21.0107 H       
 311 H311         -15.7704     0.6541   -19.2366 H       
 312 H312         -11.9738    -1.9770   -23.3075 H       
 313 H313         -13.6965    -1.9720   -25.4939 H       
 314 H314         -13.5261    -3.3634   -24.3741 H       
 315 H315         -15.6225    -1.1197   -24.3213 H       
 316 H316         -15.8750    -2.8881   -24.1379 H       
 317 H317         -14.8850    -2.9213   -21.9432 H       
 318 H318         -15.7412    -1.3492   -21.9182 H       
 319 H319         -11.6043    -0.9211   -25.7525 H       
 320 H320         -12.4408     1.8759   -25.8206 H       
 321 H321         -10.1152     2.7359   -25.8479 H       
 322 H322          -9.6316     2.4121   -23.4375 H       
 323 H323         -11.3704     2.6778   -23.7102 H       
 324 H324         -10.7594     1.0357   -23.3961 H       
 325 H325          -9.0239     0.6661   -26.6686 H       
 326 H326          -8.2613     1.2374   -25.1652 H       
 327 H327          -9.3892    -0.1390   -25.1238 H       
 328 H328         -11.0476     2.9205   -27.8774 H       
 329 H329         -10.4466     0.8659   -29.8636 H       
 330 H330         -12.8079     2.7754   -30.1588 H       
 331 H331         -12.1364     1.7875   -31.4784 H       
 332 H332         -12.6019    -0.2699   -30.1750 H       
 333 H333         -13.2734     0.7180   -28.8554 H       
 334 H334         -16.2078    -0.2256   -30.8426 H       
 335 H335         -10.0165     2.2171   -32.1293 H       
 336 H336          -8.3143     4.4697   -31.3528 H       
 337 H337          -8.8538     3.1142   -34.0316 H       
 338 H338          -7.7163     4.4638   -33.8012 H       
 339 H339          -6.2763     2.4312   -34.6899 H       
 340 H340          -5.5519     1.5278   -33.4726 H       
 341 H341          -8.5354     6.3962   -33.2621 H       
 342 H342         -11.3423     6.9882   -33.7618 H       
 343 H343         -11.0688     7.5592   -31.3454 H       
 344 H344          -9.7407     8.6633   -31.7760 H       
 345 H345         -11.3437     9.8967   -33.2853 H       
 346 H346         -13.3380     8.0200   -31.9409 H       
 347 H347         -13.7897     9.4671   -32.8737 H       
 348 H348         -12.9646     8.1110   -33.6789 H       
 349 H349         -10.8646    10.6820   -30.9827 H       
 350 H350         -12.5537    11.0167   -31.4333 H       
 351 H351         -12.1735     9.6499   -30.3583 H       
 352 H352         -11.5411     9.0126   -35.1232 H       
 353 H353          -9.0234    10.1728   -36.0411 H       
 354 H354         -10.7516     8.4075   -37.8315 H       
 355 H355          -9.4441     9.4651   -38.4147 H       
 356 H356          -7.8231     8.2493   -36.9853 H       
 357 H357          -9.1307     7.1917   -36.4021 H       
 358 H358          -7.6430     5.3176   -39.1814 H       
 359 H359          -9.7306    11.6472   -38.1832 H       
 360 H360         -12.4918    12.5648   -37.9362 H       
 361 H361         -10.1167    14.3270   -37.1863 H       
 362 H362         -11.7729    14.9228   -37.4515 H       
 363 H363         -12.5962    13.4391   -35.6434 H       
 364 H364         -10.9401    12.8433   -35.3782 H       
 365 H365         -10.2002    15.1449   -34.8270 H       
 366 H366         -11.8564    15.7408   -35.0922 H       
 367 H367         -11.9561    13.6484   -33.1979 H       
 368 H368         -10.8502    17.2812   -31.9419 H       
 369 H369         -12.1151    14.2316   -30.8946 H       
 370 H370         -11.6470    15.7613   -30.3811 H       
 371 H371         -12.5902    14.7565   -39.5013 H       
 372 H372         -10.6305    14.5709   -41.6584 H       
 373 H373         -13.5658    13.8403   -42.0573 H       
 374 H374         -12.4116    14.1435   -43.3780 H       
 375 H375         -13.3624    11.8667   -40.6580 H       
 376 H376         -12.5645     9.5430   -40.4940 H       
 377 H377         -10.7831     8.7442   -41.9946 H       
 378 H378          -9.8003    10.2688   -43.6598 H       
 379 H379         -10.6041    12.5901   -43.8294 H       
 380 H380         -11.6810    16.1795   -43.5855 H       
 381 H381         -11.9184    18.6736   -42.0979 H       
 382 H382         -11.7813    18.0583   -45.0826 H       
 383 H383         -11.8189    19.6996   -44.3950 H       
 384 H384          -9.5281    19.1798   -45.8470 H       
 385 H385          -8.2260    18.8740   -44.8303 H       
 386 H386         -13.6579    20.3395   -43.2568 H       
 387 H387         -16.2377    18.9623   -43.1047 H       
 388 H388         -15.5159    21.8963   -43.5342 H       
 389 H389         -17.1692    21.2697   -43.3294 H       
 390 H390         -16.4515    23.1023   -41.3920 H       
 391 H391         -16.0711    22.3344   -39.9469 H       
 392 H392         -17.8840    20.0368   -44.9858 H       
 393 H393         -16.4791    19.8532   -47.5673 H       
 394 H394         -18.1321    18.1013   -48.3258 H       
 395 H395         -19.2490    16.7905   -46.4805 H       
 396 H396         -18.7530    18.0639   -45.3400 H       
 397 H397         -21.1212    18.2880   -46.2903 H       
 398 H398         -20.0792    19.7195   -46.4730 H       
 399 H399         -20.3603    18.6405   -47.8604 H       
 400 H400         -16.3623    17.3577   -45.9527 H       
 401 H401         -16.9824    16.2244   -47.1773 H       
 402 H402         -15.8289    17.4967   -47.6451 H       
 403 H403         -18.5240    19.9457   -49.3684 H       
 404 H404         -20.5996    21.7548   -48.4207 H       
 405 H405         -18.5606    23.2162   -48.6368 H       
 406 H406         -18.4703    22.7666   -50.3567 H       
 407 H407         -20.8221    23.6277   -50.6420 H       
 408 H408         -21.7889    25.0104   -48.8572 H       
 409 H409         -21.4703    23.3727   -48.2369 H       
 410 H410         -20.3704    24.7100   -47.8247 H       
 411 H411         -18.8548    25.0361   -51.1849 H       
 412 H412         -20.1883    26.0228   -50.5394 H       
 413 H413         -18.8021    25.6115   -49.5013 H       
 414 H414         -22.2186    22.1746   -50.1954 H       
 415 H415         -21.6124    21.0111   -52.8043 H       
 416 H416         -23.8204    19.9160   -51.0060 H       
 417 H417         -23.6515    19.5450   -52.7387 H       
 418 H418         -21.5003    19.0249   -50.6386 H       
 419 H419         -23.4384    17.1128   -52.0185 H       
 420 H420         -22.1169    16.6401   -50.9237 H       
 421 H421         -23.4915    17.5857   -50.3033 H       
 422 H422         -20.6564    19.4089   -52.9384 H       
 423 H423         -20.4613    17.7049   -52.4625 H       
 424 H424         -21.7828    18.1775   -53.5573 H       
 425 H425         -23.9315    21.2166   -54.1617 H       
 426 H426         -25.4948    23.4848   -53.1929 H       
 427 H427         -23.7295    23.6647   -55.6749 H       
 428 H428         -25.0016    24.8360   -55.2529 H       
 429 H429         -23.8533    25.3098   -53.1068 H       
 430 H430         -22.5812    24.1386   -53.5289 H       
 431 H431         -21.4680    26.5632   -53.1488 H       
 432 H432         -21.1931    27.3813   -54.5903 H       
 433 H433         -27.0915    24.1084   -55.2724 H       
 434 H434         -28.2830    21.5327   -55.9606 H       
 435 H435         -29.1270    24.4077   -56.5354 H       
 436 H436         -30.0821    22.9690   -56.9668 H       
 437 H437         -28.8368    25.0569   -54.2160 H       
 438 H438         -29.7649    24.9950   -51.9372 H       
 439 H439         -32.3005    23.7376   -50.9471 H       
 440 H440         -32.0586    21.5409   -52.9732 H       
 441 H441         -31.1331    21.6155   -55.2528 H       
 442 H442         -27.9752    21.9327   -59.5931 H       
@<TRIPOS>BOND
   1    1    2 2
   2    1    4 1
   3    1    7 am
   4    3    4 1
   5    3  226 1
   6    3  227 1
   7    4  228 1
   8    4  229 1
   9    5    6 2
  10    5   14 am
  11    5    8 1
  12    7    8 1
  13    7   11 1
  14    8    9 1
  15    8  230 1
  16    9   10 1
  17    9  231 1
  18    9  232 1
  19   10   11 1
  20   10  233 1
  21   10  234 1
  22   11  235 1
  23   11  236 1
  24   12   13 2
  25   12   15 1
  26   12   20 am
  27   14   15 1
  28   14  237 1
  29   15   16 1
  30   15  238 1
  31   16   17 1
  32   16  239 1
  33   16  240 1
  34   17  241 1
  35   18   19 2
  36   18   21 1
  37   18   28 am
  38   20   21 1
  39   20  242 1
  40   21   22 1
  41   21  243 1
  42   22   23 1
  43   22  244 1
  44   22  245 1
  45   23   24 1
  46   23   25 1
  47   23  246 1
  48   24  247 1
  49   24  248 1
  50   24  249 1
  51   25  250 1
  52   25  251 1
  53   25  252 1
  54   26   27 2
  55   26   35 am
  56   26   29 1
  57   28   29 1
  58   28   32 1
  59   29   30 1
  60   29  253 1
  61   30   31 1
  62   30  254 1
  63   30  255 1
  64   31   32 1
  65   31  256 1
  66   31  257 1
  67   32  258 1
  68   32  259 1
  69   33   34 2
  70   33   36 1
  71   33   49 am
  72   35   36 1
  73   35  260 1
  74   36   37 1
  75   36  261 1
  76   37   38 1
  77   37  262 1
  78   37  263 1
  79   38   39 2
  80   38   46 1
  81   39   40 1
  82   39  264 1
  83   40   41 1
  84   40  265 1
  85   41   42 ar
  86   41   46 ar
  87   42   43 ar
  88   42  266 1
  89   43   44 ar
  90   43  267 1
  91   44   45 ar
  92   44  268 1
  93   45   46 ar
  94   45  269 1
  95   47   48 2
  96   47   50 1
  97   47   61 am
  98   49   50 1
  99   49  270 1
 100   50   51 1
 101   50  271 1
 102   51   52 1
 103   51  272 1
 104   51  273 1
 105   52   53 ar
 106   52   58 ar
 107   53   54 ar
 108   53  274 1
 109   54   55 ar
 110   54  275 1
 111   55   56 1
 112   55   57 ar
 113   56  276 1
 114   57   58 ar
 115   57  277 1
 116   58  278 1
 117   59   60 2
 118   59   68 am
 119   59   62 1
 120   61   62 1
 121   61   65 1
 122   62   63 1
 123   62  279 1
 124   63   64 1
 125   63  280 1
 126   63  281 1
 127   64   65 1
 128   64  282 1
 129   64  283 1
 130   65  284 1
 131   65  285 1
 132   66   67 2
 133   66   69 1
 134   66   72 am
 135   68   69 1
 136   68  286 1
 137   69  287 1
 138   69  288 1
 139   70   71 2
 140   70   73 1
 141   70   80 am
 142   72   73 1
 143   72  289 1
 144   73   74 1
 145   73  290 1
 146   74   75 1
 147   74  291 1
 148   74  292 1
 149   75   76 2
 150   75   77 am
 151   77  293 1
 152   77  294 1
 153   78   79 2
 154   78   81 1
 155   78   91 am
 156   80   81 1
 157   80  295 1
 158   81   82 1
 159   81  296 1
 160   82   83 1
 161   82  297 1
 162   82  298 1
 163   83   84 1
 164   83  299 1
 165   83  300 1
 166   84   85 1
 167   84  301 1
 168   84  302 1
 169   85   86 1
 170   85  303 1
 171   86   87 2
 172   86   88 1
 173   87  304 1
 174   88  305 1
 175   88  306 1
 176   89   90 2
 177   89   92 1
 178   89   96 am
 179   91   92 1
 180   91  307 1
 181   92   93 1
 182   92  308 1
 183   93  309 1
 184   93  310 1
 185   93  311 1
 186   94   95 2
 187   94  103 am
 188   94   97 1
 189   96   97 1
 190   96  100 1
 191   97   98 1
 192   97  312 1
 193   98   99 1
 194   98  313 1
 195   98  314 1
 196   99  100 1
 197   99  315 1
 198   99  316 1
 199  100  317 1
 200  100  318 1
 201  101  102 2
 202  101  104 1
 203  101  110 am
 204  103  104 1
 205  103  319 1
 206  104  105 1
 207  104  320 1
 208  105  106 1
 209  105  107 1
 210  105  321 1
 211  106  322 1
 212  106  323 1
 213  106  324 1
 214  107  325 1
 215  107  326 1
 216  107  327 1
 217  108  109 2
 218  108  111 1
 219  108  119 am
 220  110  111 1
 221  110  328 1
 222  111  112 1
 223  111  329 1
 224  112  113 1
 225  112  330 1
 226  112  331 1
 227  113  114 1
 228  113  332 1
 229  113  333 1
 230  114  115 2
 231  114  116 1
 232  116  334 1
 233  117  118 2
 234  117  120 1
 235  117  127 am
 236  119  120 1
 237  119  335 1
 238  120  121 1
 239  120  336 1
 240  121  122 1
 241  121  337 1
 242  121  338 1
 243  122  123 2
 244  122  124 am
 245  124  339 1
 246  124  340 1
 247  125  126 2
 248  125  128 1
 249  125  135 am
 250  127  128 1
 251  127  341 1
 252  128  129 1
 253  128  342 1
 254  129  130 1
 255  129  343 1
 256  129  344 1
 257  130  131 1
 258  130  132 1
 259  130  345 1
 260  131  346 1
 261  131  347 1
 262  131  348 1
 263  132  349 1
 264  132  350 1
 265  132  351 1
 266  133  134 2
 267  133  136 1
 268  133  144 am
 269  135  136 1
 270  135  352 1
 271  136  137 1
 272  136  353 1
 273  137  138 1
 274  137  354 1
 275  137  355 1
 276  138  139 1
 277  138  356 1
 278  138  357 1
 279  139  140 2
 280  139  141 1
 281  141  358 1
 282  142  143 2
 283  142  145 1
 284  142  155 am
 285  144  145 1
 286  144  359 1
 287  145  146 1
 288  145  360 1
 289  146  147 1
 290  146  361 1
 291  146  362 1
 292  147  148 1
 293  147  363 1
 294  147  364 1
 295  148  149 1
 296  148  365 1
 297  148  366 1
 298  149  150 1
 299  149  367 1
 300  150  151 2
 301  150  152 1
 302  151  368 1
 303  152  369 1
 304  152  370 1
 305  153  154 2
 306  153  156 1
 307  153  166 am
 308  155  156 1
 309  155  371 1
 310  156  157 1
 311  156  372 1
 312  157  158 1
 313  157  373 1
 314  157  374 1
 315  158  159 ar
 316  158  163 ar
 317  159  160 ar
 318  159  375 1
 319  160  161 ar
 320  160  376 1
 321  161  162 ar
 322  161  377 1
 323  162  163 ar
 324  162  378 1
 325  163  379 1
 326  164  165 2
 327  164  167 1
 328  164  174 am
 329  166  167 1
 330  166  380 1
 331  167  168 1
 332  167  381 1
 333  168  169 1
 334  168  382 1
 335  168  383 1
 336  169  170 2
 337  169  171 am
 338  171  384 1
 339  171  385 1
 340  172  173 2
 341  172  175 1
 342  172  182 am
 343  174  175 1
 344  174  386 1
 345  175  176 1
 346  175  387 1
 347  176  177 1
 348  176  388 1
 349  176  389 1
 350  177  178 2
 351  177  179 am
 352  179  390 1
 353  179  391 1
 354  180  181 2
 355  180  183 1
 356  180  190 am
 357  182  183 1
 358  182  392 1
 359  183  184 1
 360  183  393 1
 361  184  185 1
 362  184  187 1
 363  184  394 1
 364  185  186 1
 365  185  395 1
 366  185  396 1
 367  186  397 1
 368  186  398 1
 369  186  399 1
 370  187  400 1
 371  187  401 1
 372  187  402 1
 373  188  189 2
 374  188  191 1
 375  188  198 am
 376  190  191 1
 377  190  403 1
 378  191  192 1
 379  191  404 1
 380  192  193 1
 381  192  405 1
 382  192  406 1
 383  193  194 1
 384  193  195 1
 385  193  407 1
 386  194  408 1
 387  194  409 1
 388  194  410 1
 389  195  411 1
 390  195  412 1
 391  195  413 1
 392  196  197 2
 393  196  199 1
 394  196  206 am
 395  198  199 1
 396  198  414 1
 397  199  200 1
 398  199  415 1
 399  200  201 1
 400  200  416 1
 401  200  417 1
 402  201  202 1
 403  201  203 1
 404  201  418 1
 405  202  419 1
 406  202  420 1
 407  202  421 1
 408  203  422 1
 409  203  423 1
 410  203  424 1
 411  204  205 2
 412  204  207 1
 413  204  215 am
 414  206  207 1
 415  206  425 1
 416  207  208 1
 417  207  426 1
 418  208  209 1
 419  208  427 1
 420  208  428 1
 421  209  210 1
 422  209  429 1
 423  209  430 1
 424  210  211 2
 425  210  212 am
 426  212  431 1
 427  212  432 1
 428  213  214 2
 429  213  216 1
 430  213  225 1
 431  215  216 1
 432  215  433 1
 433  216  217 1
 434  216  434 1
 435  217  218 1
 436  217  435 1
 437  217  436 1
 438  218  219 ar
 439  218  224 ar
 440  219  220 ar
 441  219  437 1
 442  220  221 ar
 443  220  438 1
 444  221  222 1
 445  221  223 ar
 446  222  439 1
 447  223  224 ar
 448  223  440 1
 449  224  441 1
 450  225  442 1

#	End of record

