#	Name: ASD01913530
#	Creating user name:	WinNT
#	Creation time:	15. 06. 2019 20:01

#	Modifying user name:	WinNT
#	Modification time:	15. 06. 2019 20:01

#	Program:	/corina/corina34_cracker 3.40 0067  02.08.2006

@<TRIPOS>MOLECULE
ASD01913530
  54   58    0    0    0
SMALL
NO_CHARGES


@<TRIPOS>ATOM
   1 C1             0.0880     1.4561     0.3082 C.ar    
   2 C2             0.0480    -0.0126     0.1314 C.2     
   3 N3            -1.0123    -0.8153     0.3819 N.pl3   
   4 N4            -0.6020    -2.1227     0.0745 N.2     
   5 C5             0.6466    -2.0459    -0.3334 C.2     
   6 N6             1.0357    -0.7666    -0.3025 N.2     
   7 C7             1.4854    -3.1922    -0.7632 C.ar    
   8 C8             2.7997    -2.9806    -1.1755 C.ar    
   9 C9             3.5759    -4.0490    -1.5743 C.ar    
  10 C10            3.0504    -5.3312    -1.5657 C.ar    
  11 C11            1.7445    -5.5460    -1.1565 C.ar    
  12 C12            0.9630    -4.4837    -0.7502 C.ar    
  13 C13           -2.3279    -0.4022     0.8767 C.3     
  14 C14           -3.2440    -0.1398    -0.2908 C.2     
  15 N15           -4.5145     0.2548    -0.0750 N.am    
  16 O16           -2.8379    -0.2837    -1.4245 O.2     
  17 F17            3.8137    -6.3746    -1.9578 F       
  18 C18           -5.4246     0.5161    -1.2003 C.3     
  19 C19           -1.0985     2.1879     0.3588 C.ar    
  20 C20            1.3121     2.1138     0.4307 C.ar    
  21 C21            1.3426     3.4833     0.5958 C.ar    
  22 C22            0.1626     4.2041     0.6400 C.ar    
  23 C23           -1.0547     3.5571     0.5244 C.ar    
  24 C24           -6.5784    -0.4937    -1.1585 C.3     
  25 C25           -7.0841    -0.5968     0.2581 C.2     
  26 C26           -6.4005    -0.1895     1.3448 C.2     
  27 C27           -5.0297     0.4297     1.2952 C.3     
  28 C28            4.9972    -3.8214    -2.0204 C.3     
  29 N29           -8.2557    -1.0914     0.6794 N.2     
  30 C30           -8.3028    -0.9998     1.9803 C.2     
  31 O31           -7.1617    -0.4439     2.4171 O.3     
  32 C32           -9.4501    -1.4457     2.8499 C.3     
  33 H33            3.2098    -1.9815    -1.1832 H       
  34 H34            1.3387    -6.5469    -1.1517 H       
  35 H35           -0.0549    -4.6521    -0.4309 H       
  36 H36           -2.7477    -1.1939     1.4971 H       
  37 H37           -2.2243     0.5071     1.4687 H       
  38 H38           -5.8227     1.5276    -1.1196 H       
  39 H39           -4.8821     0.4108    -2.1398 H       
  40 H40           -2.0494     1.6840     0.2683 H       
  41 H41            2.2339     1.5521     0.3967 H       
  42 H42            2.2897     3.9936     0.6912 H       
  43 H43            0.1918     5.2759     0.7698 H       
  44 H44           -1.9724     4.1253     0.5592 H       
  45 H45           -7.3838    -0.1551    -1.8102 H       
  46 H46           -6.2224    -1.4688    -1.4911 H       
  47 H47           -4.3721    -0.0674     2.0084 H       
  48 H48           -5.0942     1.4928     1.5274 H       
  49 H49            5.6636    -3.8923    -1.1608 H       
  50 H50            5.2723    -4.5766    -2.7567 H       
  51 H51            5.0838    -2.8306    -2.4665 H       
  52 H52           -9.3028    -2.4858     3.1405 H       
  53 H53           -9.4933    -0.8216     3.7425 H       
  54 H54          -10.3839    -1.3520     2.2955 H       
@<TRIPOS>BOND
   1    1    2 1
   2    1   19 ar
   3    1   20 ar
   4    2    3 1
   5    2    6 2
   6    3    4 1
   7    3   13 1
   8    4    5 2
   9    5    6 1
  10    5    7 1
  11    7    8 ar
  12    7   12 ar
  13    8    9 ar
  14    8   33 1
  15    9   10 ar
  16    9   28 1
  17   10   11 ar
  18   10   17 1
  19   11   12 ar
  20   11   34 1
  21   12   35 1
  22   13   14 1
  23   13   36 1
  24   13   37 1
  25   14   15 am
  26   14   16 2
  27   15   18 1
  28   15   27 1
  29   18   24 1
  30   18   38 1
  31   18   39 1
  32   19   23 ar
  33   19   40 1
  34   20   21 ar
  35   20   41 1
  36   21   22 ar
  37   21   42 1
  38   22   23 ar
  39   22   43 1
  40   23   44 1
  41   24   25 1
  42   24   45 1
  43   24   46 1
  44   25   26 2
  45   25   29 1
  46   26   27 1
  47   26   31 1
  48   27   47 1
  49   27   48 1
  50   28   49 1
  51   28   50 1
  52   28   51 1
  53   29   30 2
  54   30   31 1
  55   30   32 1
  56   32   52 1
  57   32   53 1
  58   32   54 1

#	End of record

