#	Name: ASD01890385
#	Creating user name:	WinNT
#	Creation time:	15. 06. 2019 19:50

#	Modifying user name:	WinNT
#	Modification time:	15. 06. 2019 19:50

#	Program:	/corina/corina34_cracker 3.40 0067  02.08.2006

@<TRIPOS>MOLECULE
ASD01890385
  46   49    0    0    0
SMALL
NO_CHARGES


@<TRIPOS>ATOM
   1 C1            -0.8634    -0.2179    -1.0816 C.2     
   2 C2            -0.0695     0.1286     0.1516 C.3     
   3 C3             1.2898    -0.5715     0.0965 C.3     
   4 C4             2.1534    -0.1015     1.2687 C.3     
   5 O5            -0.3533    -0.8626    -1.9671 O.2     
   6 O6            -2.1388     0.1850    -1.1939 O.3     
   7 C7             1.5200    -2.8581    -0.8327 C.ar    
   8 C8             1.0908    -2.0627     0.1852 C.ar    
   9 C9             0.4708    -2.6066     1.3082 C.ar    
  10 C10            0.2757    -3.9492     1.4198 C.ar    
  11 C11            0.7049    -4.8021     0.3891 C.ar    
  12 C12            0.5215    -6.1932     0.4688 C.ar    
  13 C13            0.9506    -6.9883    -0.5489 C.ar    
  14 C14            1.5711    -6.4443    -1.6720 C.ar    
  15 C15            1.7662    -5.1021    -1.7838 C.ar    
  16 C16            1.3357    -4.2487    -0.7533 C.ar    
  17 C17            2.4657     1.3639     1.1068 C.2     
  18 N18            3.0289     1.8948     0.0610 N.2     
  19 C19            3.1629     3.2335     0.2448 C.ar    
  20 C20            2.6326     3.5275     1.5127 C.ar    
  21 N21            2.1944     2.3250     2.0305 N.pl3   
  22 C22            3.6866     4.2658    -0.5373 C.ar    
  23 C23            3.6795     5.5481    -0.0656 C.ar    
  24 C24            3.1562     5.8389     1.1859 C.ar    
  25 C25            2.6339     4.8360     1.9752 C.ar    
  26 C26            4.2462     6.6578    -0.9132 C.3     
  27 F27            3.2344     7.1938    -1.7171 F       
  28 F28            4.7636     7.6596    -0.0849 F       
  29 F29            5.2667     6.1502    -1.7245 F       
  30 H30            0.0790     1.2074     0.1969 H       
  31 H31           -0.6122    -0.2010     1.0376 H       
  32 H32            1.7869    -0.3265    -0.8422 H       
  33 H33            1.6138    -0.2570     2.2029 H       
  34 H34            3.0826    -0.6712     1.2867 H       
  35 H35           -2.6074    -0.0612    -2.0031 H       
  36 H36            1.9954    -2.4221    -1.6989 H       
  37 H37            0.1402    -1.9532     2.1021 H       
  38 H38           -0.2061    -4.3566     2.2963 H       
  39 H39            0.0429    -6.6290     1.3334 H       
  40 H40            0.8084    -8.0570    -0.4851 H       
  41 H41            1.9026    -7.0978    -2.4655 H       
  42 H42            2.2492    -4.6948    -2.6597 H       
  43 H43            1.7731     2.1902     2.8938 H       
  44 H44            4.0968     4.0506    -1.5129 H       
  45 H45            3.1578     6.8577     1.5445 H       
  46 H46            2.2274     5.0678     2.9486 H       
@<TRIPOS>BOND
   1    1    2 1
   2    1    5 2
   3    1    6 1
   4    2    3 1
   5    2   30 1
   6    2   31 1
   7    3    4 1
   8    3    8 1
   9    3   32 1
  10    4   17 1
  11    4   33 1
  12    4   34 1
  13    6   35 1
  14    7    8 ar
  15    7   16 ar
  16    7   36 1
  17    8    9 ar
  18    9   10 ar
  19    9   37 1
  20   10   11 ar
  21   10   38 1
  22   11   12 ar
  23   11   16 ar
  24   12   13 ar
  25   12   39 1
  26   13   14 ar
  27   13   40 1
  28   14   15 ar
  29   14   41 1
  30   15   16 ar
  31   15   42 1
  32   17   18 2
  33   17   21 1
  34   18   19 1
  35   19   20 ar
  36   19   22 ar
  37   20   21 1
  38   20   25 ar
  39   21   43 1
  40   22   23 ar
  41   22   44 1
  42   23   24 ar
  43   23   26 1
  44   24   25 ar
  45   24   45 1
  46   25   46 1
  47   26   27 1
  48   26   28 1
  49   26   29 1

#	End of record

