#	Name: ASD05130051
#	Creating user name:	WinNT
#	Creation time:	15. 06. 2019 20:56

#	Modifying user name:	WinNT
#	Modification time:	15. 06. 2019 20:56

#	Program:	/corina/corina34_cracker 3.40 0067  02.08.2006

@<TRIPOS>MOLECULE
ASD05130051
  61   64    0    0    0
SMALL
NO_CHARGES


@<TRIPOS>ATOM
   1 N1            -0.1608     1.5501     0.1053 N.am    
   2 C2             0.0483     0.4211     0.8111 C.2     
   3 O3             1.1144     0.2405     1.3673 O.2     
   4 N4            -0.9242    -0.5077     0.9003 N.am    
   5 C5            -0.6721    -1.7251     1.5426 C.ar    
   6 C6            -1.6850    -2.3629     2.2463 C.ar    
   7 C7            -1.4324    -3.5661     2.8800 C.ar    
   8 C8            -0.1704    -4.1335     2.8123 C.ar    
   9 C9             0.8386    -3.4991     2.1124 C.ar    
  10 C10            0.5898    -2.3003     1.4725 C.ar    
  11 F11           -2.4166    -4.1879     3.5656 F       
  12 C12            0.8155     2.5550     0.0856 C.ar    
  13 C13            0.4421     3.8848    -0.0857 C.ar    
  14 C14            1.4032     4.8799    -0.1053 C.ar    
  15 C15            2.7386     4.5585     0.0446 C.ar    
  16 C16            3.1207     3.2275     0.2167 C.ar    
  17 C17            2.1517     2.2256     0.2422 C.ar    
  18 F18           -0.8621     4.2047    -0.2336 F       
  19 N19            6.5407     2.8357     1.7892 N.am    
  20 C20            5.2390     3.1512     1.6423 C.2     
  21 C21            4.5522     2.8806     0.3772 C.2     
  22 C22            5.2412     2.3050    -0.6553 C.2     
  23 C23            6.6075     1.9829    -0.4765 C.ar    
  24 C24            7.3510     1.3933    -1.5063 C.ar    
  25 N25            8.6201     1.1005    -1.3238 N.ar    
  26 C26            9.2454     1.3450    -0.1770 C.ar    
  27 C27            8.5836     1.9270     0.8948 C.ar    
  28 C28            7.2405     2.2566     0.7557 C.ar    
  29 O29            4.6309     3.6632     2.5653 O.2     
  30 N30           10.5859     1.0116    -0.0488 N.pl3   
  31 C31           11.2891     1.2749     1.2092 C.3     
  32 C32           12.7436     0.8165     1.0860 C.3     
  33 O33           13.4123     1.6122     0.1053 O.3     
  34 C34           14.7847     1.2641    -0.0883 C.3     
  35 C35            7.2179     3.1169     3.0575 C.3     
  36 C36            7.0821     1.9091     3.9869 C.3     
  37 Cl37           3.9410     5.8104     0.0182 Cl      
  38 H38           -0.9856     1.6653    -0.3921 H       
  39 H39           -1.7988    -0.3323     0.5193 H       
  40 H40           -2.6686    -1.9200     2.2991 H       
  41 H41            0.0254    -5.0730     3.3076 H       
  42 H42            1.8215    -3.9436     2.0616 H       
  43 H43            1.3778    -1.8083     0.9217 H       
  44 H44            1.1089     5.9105    -0.2384 H       
  45 H45            2.4426     1.1945     0.3793 H       
  46 H46            4.7487     2.0990    -1.5942 H       
  47 H47            6.8803     1.1777    -2.4541 H       
  48 H48            9.1034     2.1208     1.8215 H       
  49 H49           11.0576     0.6041    -0.7920 H       
  50 H50           11.2617     2.3432     1.4240 H       
  51 H51           10.8034     0.7291     2.0181 H       
  52 H52           13.2431     0.9300     2.0481 H       
  53 H53           12.7703    -0.2305     0.7840 H       
  54 H54           15.3265     1.3869     0.8495 H       
  55 H55           14.8537     0.2263    -0.4146 H       
  56 H56           15.2207     1.9134    -0.8475 H       
  57 H57            8.2734     3.3141     2.8699 H       
  58 H58            6.7630     3.9893     3.5266 H       
  59 H59            7.5370     1.0367     3.5178 H       
  60 H60            7.5859     2.1184     4.9305 H       
  61 H61            6.0266     1.7119     4.1745 H       
@<TRIPOS>BOND
   1    1    2 am
   2    1   12 1
   3    1   38 1
   4    2    3 2
   5    2    4 am
   6    4    5 1
   7    4   39 1
   8    5    6 ar
   9    5   10 ar
  10    6    7 ar
  11    6   40 1
  12    7    8 ar
  13    7   11 1
  14    8    9 ar
  15    8   41 1
  16    9   10 ar
  17    9   42 1
  18   10   43 1
  19   12   13 ar
  20   12   17 ar
  21   13   14 ar
  22   13   18 1
  23   14   15 ar
  24   14   44 1
  25   15   16 ar
  26   15   37 1
  27   16   17 ar
  28   16   21 1
  29   17   45 1
  30   19   20 am
  31   19   28 1
  32   19   35 1
  33   20   21 1
  34   20   29 2
  35   21   22 2
  36   22   23 1
  37   22   46 1
  38   23   24 ar
  39   23   28 ar
  40   24   25 ar
  41   24   47 1
  42   25   26 ar
  43   26   27 ar
  44   26   30 1
  45   27   28 ar
  46   27   48 1
  47   30   31 1
  48   30   49 1
  49   31   32 1
  50   31   50 1
  51   31   51 1
  52   32   33 1
  53   32   52 1
  54   32   53 1
  55   33   34 1
  56   34   54 1
  57   34   55 1
  58   34   56 1
  59   35   36 1
  60   35   57 1
  61   35   58 1
  62   36   59 1
  63   36   60 1
  64   36   61 1

#	End of record

