#	Name: ASD03730048
#	Creating user name:	WinNT
#	Creation time:	15. 06. 2019 20:43

#	Modifying user name:	WinNT
#	Modification time:	15. 06. 2019 20:43

#	Program:	/corina/corina34_cracker 3.40 0067  02.08.2006

@<TRIPOS>MOLECULE
ASD03730048
  49   54    0    0    0
SMALL
NO_CHARGES


@<TRIPOS>ATOM
   1 O1            -0.0175     1.4357     0.0099 O.3     
   2 C2             0.0021    -0.0041     0.0020 C.3     
   3 O3             1.2460    -0.3262    -0.6474 O.3     
   4 C4             2.0711     0.7339    -0.4023 C.ar    
   5 C5             1.2935     1.8177    -0.0005 C.ar    
   6 C6             3.4457     0.8630    -0.4887 C.ar    
   7 C7             4.0608     2.0725    -0.1805 C.ar    
   8 C8             3.2728     3.1517     0.2083 C.ar    
   9 C9             1.9027     3.0238     0.3026 C.ar    
  10 O10            5.3841     2.4029    -0.1822 O.3     
  11 C11            4.2104     4.3067     0.4381 C.3     
  12 C12            5.5156     3.8370    -0.2191 C.3     
  13 N13            3.6180     6.4796     0.8272 N.am    
  14 C14            3.7038     5.5811    -0.1739 C.2     
  15 C15            4.3957     4.6119     1.8947 C.ar    
  16 C16            4.8315     3.8717     2.9773 C.ar    
  17 C17            4.8935     4.4547     4.2359 C.ar    
  18 C18            4.5180     5.7748     4.4000 C.ar    
  19 C19            4.0825     6.5158     3.3209 C.ar    
  20 C20            4.0174     5.9416     2.0531 C.ar    
  21 O21            3.4269     5.7658    -1.3402 O.2     
  22 C22            3.1589     7.8595     0.6505 C.3     
  23 O23            0.7412     7.7677    -0.1164 O.3     
  24 C24            1.6659     7.9211     0.8455 C.2     
  25 C25            1.0333     8.1385     2.0125 C.2     
  26 C26           -0.3533     8.1147     1.7374 C.2     
  27 C27           -0.4851     7.8841     0.4188 C.2     
  28 C28           -1.7878     7.7750    -0.3310 C.3     
  29 F29           -2.1675     9.0398    -0.7928 F       
  30 F30           -1.6288     6.9097    -1.4187 F       
  31 F31           -2.7766     7.2741     0.5227 F       
  32 O32            5.1988     2.5740     2.8102 O.3     
  33 C33            5.6391     1.8695     3.9729 C.3     
  34 H34           -0.0102    -0.3928     1.0203 H       
  35 H35           -0.8403    -0.3953    -0.5684 H       
  36 H36            4.0454     0.0194    -0.7971 H       
  37 H37            1.3033     3.8667     0.6135 H       
  38 H38            6.3797     4.1616     0.3606 H       
  39 H39            5.5816     4.1934    -1.2471 H       
  40 H40            5.2335     3.8787     5.0839 H       
  41 H41            4.5655     6.2287     5.3788 H       
  42 H42            3.7905     7.5463     3.4596 H       
  43 H43            3.6478     8.5017     1.3830 H       
  44 H44            3.4084     8.1995    -0.3547 H       
  45 H45            1.4958     8.2997     2.9750 H       
  46 H46           -1.1532     8.2544     2.4495 H       
  47 H47            5.9014     0.8471     3.7007 H       
  48 H48            6.5124     2.3694     4.3917 H       
  49 H49            4.8392     1.8545     4.7132 H       
@<TRIPOS>BOND
   1    1    2 1
   2    1    5 1
   3    2    3 1
   4    2   34 1
   5    2   35 1
   6    3    4 1
   7    4    5 ar
   8    4    6 ar
   9    5    9 ar
  10    6    7 ar
  11    6   36 1
  12    7    8 ar
  13    7   10 1
  14    8    9 ar
  15    8   11 1
  16    9   37 1
  17   10   12 1
  18   11   12 1
  19   11   14 1
  20   11   15 1
  21   12   38 1
  22   12   39 1
  23   13   14 am
  24   13   20 1
  25   13   22 1
  26   14   21 2
  27   15   16 ar
  28   15   20 ar
  29   16   17 ar
  30   16   32 1
  31   17   18 ar
  32   17   40 1
  33   18   19 ar
  34   18   41 1
  35   19   20 ar
  36   19   42 1
  37   22   24 1
  38   22   43 1
  39   22   44 1
  40   23   24 1
  41   23   27 1
  42   24   25 2
  43   25   26 1
  44   25   45 1
  45   26   27 2
  46   26   46 1
  47   27   28 1
  48   28   29 1
  49   28   30 1
  50   28   31 1
  51   32   33 1
  52   33   47 1
  53   33   48 1
  54   33   49 1

#	End of record

