#	Name: ASD00170445
#	Creating user name:	WinNT
#	Creation time:	15. 06. 2019 18:32

#	Modifying user name:	WinNT
#	Modification time:	15. 06. 2019 18:32

#	Program:	/corina/corina34_cracker 3.40 0067  02.08.2006

@<TRIPOS>MOLECULE
ASD00170445
  58   60    0    0    0
SMALL
NO_CHARGES


@<TRIPOS>ATOM
   1 C1            -1.7426    -0.1181    -0.1797 C.2     
   2 C2            -0.7661    -0.9830     0.2642 C.2     
   3 C3            -1.2149    -1.8256     1.3468 C.2     
   4 C4            -2.4862    -1.5943     1.6973 C.2     
   5 S5            -3.1818    -0.3218     0.7097 S.3     
   6 C6            -0.3433    -2.8589     2.0129 C.3     
   7 N7            -1.5760     0.7926    -1.2008 N.pl3   
   8 C8             0.5824    -1.0411    -0.3018 C.2     
   9 C9             0.8393    -1.8395    -1.5195 C.ar    
  10 O10            1.4927    -0.4320     0.2302 O.2     
  11 C11            2.0944    -1.8024    -2.1300 C.ar    
  12 C12            2.3282    -2.5495    -3.2652 C.ar    
  13 C13            1.3209    -3.3357    -3.7999 C.ar    
  14 C14            0.0737    -3.3766    -3.1986 C.ar    
  15 C15           -0.1704    -2.6379    -2.0600 C.ar    
  16 Cl16           1.6226    -4.2731    -5.2296 Cl      
  17 C17           -3.2041    -2.3096     2.7728 C.ar    
  18 C18           -3.8233    -1.5937     3.7990 C.ar    
  19 C19           -4.4917    -2.2677     4.7999 C.ar    
  20 C20           -4.5492    -3.6501     4.7884 C.ar    
  21 C21           -3.9373    -4.3658     3.7745 C.ar    
  22 C22           -3.2709    -3.7041     2.7641 C.ar    
  23 N23            0.6785    -2.1867     2.8266 N.3     
  24 C24            0.0916    -1.6268     4.0514 C.3     
  25 C25            1.7846    -3.1002     3.1428 C.3     
  26 O26            2.7093    -3.1235     2.0535 O.3     
  27 O27           -0.8815    -0.6393     3.7050 O.3     
  28 C28           -0.3214     0.5981     3.2612 C.3     
  29 C29           -0.5788    -2.7444     4.8528 C.3     
  30 C30            2.2520    -3.8617     0.9186 C.3     
  31 C31            2.4983    -2.6185     4.4075 C.3     
  32 H32           -0.9566    -3.4942     2.6520 H       
  33 H33            0.1422    -3.4698     1.2519 H       
  34 H34           -0.7044     0.9078    -1.6105 H       
  35 H35           -2.3304     1.3183    -1.5096 H       
  36 H36            2.8805    -1.1894    -1.7143 H       
  37 H37            3.2985    -2.5213    -3.7386 H       
  38 H38           -0.7079    -3.9911    -3.6202 H       
  39 H39           -1.1431    -2.6709    -1.5919 H       
  40 H40           -3.7788    -0.5147     3.8093 H       
  41 H41           -4.9709    -1.7151     5.5946 H       
  42 H42           -5.0739    -4.1729     5.5744 H       
  43 H43           -3.9857    -5.4447     3.7716 H       
  44 H44           -2.7937    -4.2638     1.9733 H       
  45 H45            0.8761    -1.1683     4.6534 H       
  46 H46            1.3915    -4.1035     3.3072 H       
  47 H47            0.2318     0.4356     2.3361 H       
  48 H48           -1.1218     1.3166     3.0844 H       
  49 H49            0.3531     0.9862     4.0245 H       
  50 H50            0.1324    -3.5552     5.0107 H       
  51 H51           -0.9053    -2.3546     5.8169 H       
  52 H52           -1.4411    -3.1197     4.3017 H       
  53 H53            1.9137    -4.8472     1.2384 H       
  54 H54            1.4258    -3.3290     0.4476 H       
  55 H55            3.0677    -3.9717     0.2040 H       
  56 H56            2.8913    -1.6152     4.2430 H       
  57 H57            1.7929    -2.6007     5.2383 H       
  58 H58            3.3190    -3.2963     4.6421 H       
@<TRIPOS>BOND
   1    1    2 2
   2    1    7 1
   3    1    5 1
   4    2    3 1
   5    2    8 1
   6    3    4 2
   7    3    6 1
   8    4    5 1
   9    4   17 1
  10    6   23 1
  11    6   32 1
  12    6   33 1
  13    7   34 1
  14    7   35 1
  15    8    9 1
  16    8   10 2
  17    9   11 ar
  18    9   15 ar
  19   11   12 ar
  20   11   36 1
  21   12   13 ar
  22   12   37 1
  23   13   14 ar
  24   13   16 1
  25   14   15 ar
  26   14   38 1
  27   15   39 1
  28   17   18 ar
  29   17   22 ar
  30   18   19 ar
  31   18   40 1
  32   19   20 ar
  33   19   41 1
  34   20   21 ar
  35   20   42 1
  36   21   22 ar
  37   21   43 1
  38   22   44 1
  39   23   24 1
  40   23   25 1
  41   24   27 1
  42   24   29 1
  43   24   45 1
  44   25   26 1
  45   25   31 1
  46   25   46 1
  47   26   30 1
  48   27   28 1
  49   28   47 1
  50   28   48 1
  51   28   49 1
  52   29   50 1
  53   29   51 1
  54   29   52 1
  55   30   53 1
  56   30   54 1
  57   30   55 1
  58   31   56 1
  59   31   57 1
  60   31   58 1

#	End of record

