#	Name: ASD01200141
#	Creating user name:	WinNT
#	Creation time:	15. 06. 2019 19:08

#	Modifying user name:	WinNT
#	Modification time:	15. 06. 2019 19:08

#	Program:	/corina/corina34_cracker 3.40 0067  02.08.2006

@<TRIPOS>MOLECULE
ASD01200141
  59   62    0    0    0
SMALL
NO_CHARGES


@<TRIPOS>ATOM
   1 C1            -0.0194     1.3725    -0.0075 C.ar    
   2 C2             0.0019    -0.0107    -0.0149 C.ar    
   3 C3             1.2098    -0.6887    -0.0244 C.ar    
   4 C4             2.3919     0.0143    -0.0267 C.ar    
   5 C5             2.3820     1.4114    -0.0193 C.ar    
   6 C6             1.1608     2.0874    -0.0096 C.ar    
   7 C7             3.8416    -0.4018    -0.0361 C.3     
   8 N8             4.6250     0.8389    -0.0335 N.am    
   9 C9             3.7797     1.8839    -0.0238 C.2     
  10 O10            4.1183     3.0513    -0.0190 O.2     
  11 S11            4.2188    -1.3803     1.4441 S.3     
  12 C12            6.0875     0.9245    -0.0403 C.3     
  13 C13            6.5819     0.9613    -1.4634 C.ar    
  14 C14            3.6296    -3.0372     0.9990 C.3     
  15 C15            3.8762    -3.9830     2.1460 C.2     
  16 O16            4.3981    -3.5791     3.1635 O.2     
  17 N17            3.5169    -5.2777     2.0411 N.am    
  18 C18            3.8413    -6.1757     3.0569 C.ar    
  19 N19            4.5853    -5.7733     4.0748 N.ar    
  20 C20            4.9147    -6.5905     5.0568 C.ar    
  21 C21            4.4912    -7.9047     5.0565 C.ar    
  22 C22            3.7088    -8.3664     4.0066 C.ar    
  23 C23            3.3755    -7.4842     2.9942 C.ar    
  24 C24            6.7380     2.1742    -2.1077 C.ar    
  25 C25            7.1922     2.2123    -3.4174 C.ar    
  26 C26            7.4911     1.0289    -4.0820 C.ar    
  27 C27            7.3332    -0.1885    -3.4304 C.ar    
  28 C28            6.8834    -0.2177    -2.1191 C.ar    
  29 O29            7.6238    -1.3493    -4.0766 O.3     
  30 C30            7.4380    -2.5630    -3.3454 C.3     
  31 O31            7.9367     1.0621    -5.3674 O.3     
  32 C32            9.3498     1.1463    -5.5622 C.3     
  33 O33            7.3447     3.4061    -4.0507 O.3     
  34 C34            7.0181     4.5816    -3.3066 C.3     
  35 H35           -0.9644     1.8954    -0.0046 H       
  36 H36           -0.9258    -0.5636    -0.0128 H       
  37 H37            1.2233    -1.7686    -0.0298 H       
  38 H38            1.1398     3.1672    -0.0042 H       
  39 H39            4.0594    -0.9804    -0.9338 H       
  40 H40            6.4008     1.8315     0.4767 H       
  41 H41            6.5048     0.0546     0.4669 H       
  42 H42            2.5618    -2.9975     0.7840 H       
  43 H43            4.1650    -3.3885     0.1169 H       
  44 H44            3.0325    -5.5847     1.2588 H       
  45 H45            5.5238    -6.2269     5.8712 H       
  46 H46            4.7660    -8.5666     5.8644 H       
  47 H47            3.3648    -9.3898     3.9828 H       
  48 H48            2.7681    -7.8097     2.1626 H       
  49 H49            6.5056     3.0934    -1.5906 H       
  50 H50            6.7607    -1.1634    -1.6120 H       
  51 H51            6.3941    -2.6491    -3.0437 H       
  52 H52            7.7053    -3.4113    -3.9755 H       
  53 H53            8.0727    -2.5541    -2.4594 H       
  54 H54            9.7269     2.0576    -5.0979 H       
  55 H55            9.8315     0.2807    -5.1075 H       
  56 H56            9.5690     1.1650    -6.6298 H       
  57 H57            5.9714     4.5416    -3.0050 H       
  58 H58            7.6498     4.6376    -2.4201 H       
  59 H59            7.1840     5.4622    -3.9272 H       
@<TRIPOS>BOND
   1    1    2 ar
   2    1    6 ar
   3    1   35 1
   4    2    3 ar
   5    2   36 1
   6    3    4 ar
   7    3   37 1
   8    4    5 ar
   9    4    7 1
  10    5    6 ar
  11    5    9 1
  12    6   38 1
  13    7    8 1
  14    7   11 1
  15    7   39 1
  16    8    9 am
  17    8   12 1
  18    9   10 2
  19   11   14 1
  20   12   13 1
  21   12   40 1
  22   12   41 1
  23   13   24 ar
  24   13   28 ar
  25   14   15 1
  26   14   42 1
  27   14   43 1
  28   15   16 2
  29   15   17 am
  30   17   18 1
  31   17   44 1
  32   18   19 ar
  33   18   23 ar
  34   19   20 ar
  35   20   21 ar
  36   20   45 1
  37   21   22 ar
  38   21   46 1
  39   22   23 ar
  40   22   47 1
  41   23   48 1
  42   24   25 ar
  43   24   49 1
  44   25   26 ar
  45   25   33 1
  46   26   27 ar
  47   26   31 1
  48   27   28 ar
  49   27   29 1
  50   28   50 1
  51   29   30 1
  52   30   51 1
  53   30   52 1
  54   30   53 1
  55   31   32 1
  56   32   54 1
  57   32   55 1
  58   32   56 1
  59   33   34 1
  60   34   57 1
  61   34   58 1
  62   34   59 1

#	End of record

