#	Name: ASD02560138
#	Creating user name:	WinNT
#	Creation time:	15. 06. 2019 20:24

#	Modifying user name:	WinNT
#	Modification time:	15. 06. 2019 20:24

#	Program:	/corina/corina34_cracker 3.40 0067  02.08.2006

@<TRIPOS>MOLECULE
ASD02560138
  59   63    0    0    0
SMALL
NO_CHARGES


@<TRIPOS>ATOM
   1 N1            -0.2043     1.0659     0.1061 N.2     
   2 N2            -0.0685    -0.1607     0.0604 N.2     
   3 C3             1.0836     1.7499    -0.0687 C.3     
   4 N4             2.1053     0.6978     0.1630 N.3     
   5 C5             1.3362    -0.5322    -0.1536 C.3     
   6 S6             1.8107    -1.8793     0.9647 S.3     
   7 C7             1.3993    -1.2148     2.6017 C.3     
   8 C8             1.7413    -2.2339     3.6580 C.2     
   9 O9             2.2158    -3.3032     3.3379 O.2     
  10 N10            1.5198    -1.9571     4.9582 N.am    
  11 C11            3.1840     0.8495    -0.7055 C.ar    
  12 C12            1.7448    -2.9382     5.9309 C.ar    
  13 C13            0.9321    -3.0022     7.0567 C.ar    
  14 C14            1.1570    -3.9726     8.0146 C.ar    
  15 C15            2.1892    -4.8788     7.8535 C.ar    
  16 C16            2.9990    -4.8174     6.7346 C.ar    
  17 C17            2.7764    -3.8531     5.7705 C.ar    
  18 Cl18          -0.3632    -1.8644     7.2595 Cl      
  19 S19            2.4732    -6.1143     9.0772 S.o2    
  20 O20            3.8354    -6.4988     8.9507 O.2     
  21 O21            1.9149    -5.6177    10.2859 O.2     
  22 C22            4.1190     1.8877    -0.5053 C.ar    
  23 C23            3.3511    -0.0167    -1.7652 C.ar    
  24 C24            4.4253     0.1259    -2.6380 C.ar    
  25 C25            5.3395     1.1213    -2.4712 C.ar    
  26 C26            5.2083     2.0224    -1.4011 C.ar    
  27 C27            6.1365     3.0597    -1.2048 C.ar    
  28 C28            5.9792     3.9152    -0.1580 C.ar    
  29 C29            4.9097     3.7792     0.7248 C.ar    
  30 C30            3.9896     2.7885     0.5632 C.ar    
  31 N31            1.5725    -7.4383     8.6554 N.am    
  32 C32            6.4940     1.2532    -3.4307 C.3     
  33 C33            7.4558     0.0689    -3.5458 C.3     
  34 C34            6.4770     0.3726    -4.6818 C.3     
  35 C35            1.2034     2.3053    -1.4893 C.3     
  36 F36            0.0913     3.1055    -1.7725 F       
  37 F37            2.3686     3.0727    -1.5932 F       
  38 H38            1.1905     2.5506     0.6631 H       
  39 H39            1.4977    -0.8243    -1.1912 H       
  40 H40            1.9705    -0.3033     2.7779 H       
  41 H41            0.3337    -0.9900     2.6453 H       
  42 H42            1.2045    -1.0779     5.2201 H       
  43 H43            0.5264    -4.0230     8.8899 H       
  44 H44            3.8043    -5.5264     6.6122 H       
  45 H45            3.4096    -3.8059     4.8969 H       
  46 H46            2.6404    -0.8152    -1.9193 H       
  47 H47            4.5361    -0.5645    -3.4612 H       
  48 H48            6.9705     3.1770    -1.8810 H       
  49 H49            6.6939     4.7111    -0.0093 H       
  50 H50            4.8075     4.4712     1.5476 H       
  51 H51            3.1657     2.6949     1.2551 H       
  52 H52            1.8769    -8.3280     8.8939 H       
  53 H53            0.7406    -7.3243     8.1698 H       
  54 H54            6.9148     2.2543    -3.5252 H       
  55 H55            8.5093     0.2908    -3.7163 H       
  56 H56            7.2535    -0.8057    -2.9275 H       
  57 H57            5.6307    -0.3021    -4.8109 H       
  58 H58            6.8865     0.7943    -5.5997 H       
  59 H59            1.2474     1.4798    -2.1997 H       
@<TRIPOS>BOND
   1    1    2 2
   2    1    3 1
   3    2    5 1
   4    3    4 1
   5    3   35 1
   6    3   38 1
   7    4    5 1
   8    4   11 1
   9    5    6 1
  10    5   39 1
  11    6    7 1
  12    7    8 1
  13    7   40 1
  14    7   41 1
  15    8    9 2
  16    8   10 am
  17   10   12 1
  18   10   42 1
  19   11   22 ar
  20   11   23 ar
  21   12   13 ar
  22   12   17 ar
  23   13   14 ar
  24   13   18 1
  25   14   15 ar
  26   14   43 1
  27   15   16 ar
  28   15   19 1
  29   16   17 ar
  30   16   44 1
  31   17   45 1
  32   19   20 2
  33   19   21 2
  34   19   31 am
  35   22   26 ar
  36   22   30 ar
  37   23   24 ar
  38   23   46 1
  39   24   25 ar
  40   24   47 1
  41   25   26 ar
  42   25   32 1
  43   26   27 ar
  44   27   28 ar
  45   27   48 1
  46   28   29 ar
  47   28   49 1
  48   29   30 ar
  49   29   50 1
  50   30   51 1
  51   31   52 1
  52   31   53 1
  53   32   33 1
  54   32   34 1
  55   32   54 1
  56   33   34 1
  57   33   55 1
  58   33   56 1
  59   34   57 1
  60   34   58 1
  61   35   36 1
  62   35   37 1
  63   35   59 1

#	End of record

