#	Name: ASD01913370
#	Creating user name:	WinNT
#	Creation time:	15. 06. 2019 20:01

#	Modifying user name:	WinNT
#	Modification time:	15. 06. 2019 20:01

#	Program:	/corina/corina34_cracker 3.40 0067  02.08.2006

@<TRIPOS>MOLECULE
ASD01913370
  37   39    0    0    0
SMALL
NO_CHARGES


@<TRIPOS>ATOM
   1 C1            -0.0167     1.3789     0.0096 C.2     
   2 C2             0.0021    -0.0041     0.0020 C.2     
   3 C3             1.2507    -0.6673    -0.0135 C.2     
   4 N4             2.3633     0.0254    -0.0204 N.2     
   5 C5             2.3483     1.3645    -0.0130 C.2     
   6 N6             1.1652     2.0483     0.0019 N.pl3   
   7 N7             3.3231     2.2675    -0.0179 N.2     
   8 C8             2.8044     3.4880    -0.0067 C.2     
   9 N9             1.4951     3.4102     0.0057 N.2     
  10 C10           -1.2202    -0.7502     0.0101 C.1     
  11 C11           -2.2222    -1.3619     0.0168 C.1     
  12 C12           -3.4444    -2.1080     0.0249 C.ar    
  13 C13           -3.4142    -3.5050     0.0172 C.ar    
  14 C14           -4.5954    -4.2169     0.0250 C.ar    
  15 C15           -5.8461    -2.1679     0.0542 C.ar    
  16 C16           -4.6730    -1.4426     0.0465 C.ar    
  17 C17           -5.8084    -3.5511     0.0406 C.ar    
  18 C18            3.5982     4.7689    -0.0074 C.3     
  19 C19            5.0929     4.4426    -0.0238 C.3     
  20 C20            3.2417     5.5892    -1.2488 C.3     
  21 C21            3.2661     5.5755     1.2495 C.3     
  22 H22           -0.9534     1.9164     0.0170 H       
  23 H23            1.2876    -1.7467    -0.0192 H       
  24 H24           -2.4683    -4.0260     0.0046 H       
  25 H25           -4.5737    -5.2967     0.0186 H       
  26 H26           -6.7964    -1.6550     0.0712 H       
  27 H27           -4.7039    -0.3631     0.0575 H       
  28 H28           -6.7302    -4.1138     0.0467 H       
  29 H29            5.3296     3.8679    -0.9193 H       
  30 H30            5.6671     5.3691    -0.0243 H       
  31 H31            5.3469     3.8582     0.8606 H       
  32 H32            2.1768     5.8217    -1.2371 H       
  33 H33            3.8159     6.5157    -1.2493 H       
  34 H34            3.4783     5.0145    -2.1443 H       
  35 H35            3.5201     4.9912     2.1339 H       
  36 H36            3.8403     6.5020     1.2490 H       
  37 H37            2.2012     5.8080     1.2612 H       
@<TRIPOS>BOND
   1    1    2 2
   2    1    6 1
   3    1   22 1
   4    2    3 1
   5    2   10 1
   6    3    4 2
   7    3   23 1
   8    4    5 1
   9    5    6 1
  10    5    7 2
  11    6    9 1
  12    7    8 1
  13    8    9 2
  14    8   18 1
  15   10   11 3
  16   11   12 1
  17   12   13 ar
  18   12   16 ar
  19   13   14 ar
  20   13   24 1
  21   14   17 ar
  22   14   25 1
  23   15   16 ar
  24   15   17 ar
  25   15   26 1
  26   16   27 1
  27   17   28 1
  28   18   19 1
  29   18   20 1
  30   18   21 1
  31   19   29 1
  32   19   30 1
  33   19   31 1
  34   20   32 1
  35   20   33 1
  36   20   34 1
  37   21   35 1
  38   21   36 1
  39   21   37 1

#	End of record

