#	Name: ASD02398010
#	Creating user name:	WinNT
#	Creation time:	15. 06. 2019 20:20

#	Modifying user name:	WinNT
#	Modification time:	15. 06. 2019 20:20

#	Program:	/corina/corina34_cracker 3.40 0067  02.08.2006

@<TRIPOS>MOLECULE
ASD02398010
  60   63    0    0    0
SMALL
NO_CHARGES


@<TRIPOS>ATOM
   1 C1            -0.2324     1.3881    -0.0518 C.ar    
   2 C2             0.0543     0.0217    -0.1294 C.ar    
   3 C3            -0.9840    -0.9051    -0.0813 C.ar    
   4 C4            -2.2889    -0.4717     0.0426 C.ar    
   5 C5            -2.5696     0.8808     0.1187 C.ar    
   6 C6            -1.5459     1.8089     0.0777 C.ar    
   7 C7            -3.4117    -1.4756     0.0945 C.3     
   8 C8            -3.5997    -1.9460     1.5138 C.2     
   9 O9            -2.8354    -1.5836     2.3766 O.2     
  10 O10           -4.6162    -2.7676     1.8195 O.3     
  11 C11            1.4581    -0.4386    -0.2630 C.ar    
  12 C12            2.3540    -0.2645     0.7906 C.ar    
  13 C13            1.8836    -1.0513    -1.4400 C.ar    
  14 C14            3.1905    -1.4779    -1.5598 C.ar    
  15 C15            4.0788    -1.2982    -0.5122 C.ar    
  16 C16            3.6586    -0.6941     0.6620 C.ar    
  17 C17            1.8982     0.3923     2.0681 C.3     
  18 N18            2.9715     0.3230     3.0627 N.am    
  19 C19            3.9909     1.1861     3.1707 C.2     
  20 O20            4.8386     0.9006     4.1653 O.3     
  21 C21            4.3888    -0.3002     4.8573 C.3     
  22 C22            3.1026    -0.7017     4.1098 C.3     
  23 O23            4.1326     2.1406     2.4322 O.2     
  24 O24            0.7740     2.2995    -0.0974 O.3     
  25 C25            0.4056     3.6776    -0.0126 C.3     
  26 C26            3.2574    -2.0873     3.4797 C.3     
  27 C27            5.4261    -1.3886     4.7552 C.ar    
  28 C28            5.5769    -2.2984     5.7849 C.ar    
  29 C29            6.2230    -1.4806     3.6294 C.ar    
  30 C30            7.1745    -2.4790     3.5358 C.ar    
  31 C31            7.3294    -3.3851     4.5681 C.ar    
  32 C32            6.5285    -3.2968     5.6913 C.ar    
  33 C33           -4.8045    -3.0894     3.2228 C.3     
  34 F34            5.3572    -1.7177    -0.6336 F       
  35 H35           -0.7687    -1.9617    -0.1412 H       
  36 H36           -3.5927     1.2129     0.2152 H       
  37 H37           -1.7711     2.8634     0.1379 H       
  38 H38           -4.3318    -1.0102    -0.2589 H       
  39 H39           -3.1677    -2.3268    -0.5411 H       
  40 H40            1.1915    -1.1925    -2.2570 H       
  41 H41            3.5212    -1.9529    -2.4716 H       
  42 H42            4.3545    -0.5559     1.4763 H       
  43 H43            1.6513     1.4357     1.8721 H       
  44 H44            1.0169    -0.1244     2.4480 H       
  45 H45            4.1670    -0.0791     5.9013 H       
  46 H46            2.2457    -0.6798     4.7832 H       
  47 H47            1.3013     4.2968    -0.0609 H       
  48 H48           -0.2549     3.9289    -0.8425 H       
  49 H49           -0.1107     3.8583     0.9302 H       
  50 H50            3.4864    -2.8164     4.2570 H       
  51 H51            2.3285    -2.3662     2.9823 H       
  52 H52            4.0677    -2.0666     2.7510 H       
  53 H53            4.9516    -2.2291     6.6627 H       
  54 H54            6.1019    -0.7726     2.8228 H       
  55 H55            7.7965    -2.5512     2.6559 H       
  56 H56            8.0726    -4.1653     4.4948 H       
  57 H57            6.6495    -4.0048     6.4979 H       
  58 H58           -5.6035    -3.8240     3.3230 H       
  59 H59           -3.8801    -3.5004     3.6285 H       
  60 H60           -5.0713    -2.1854     3.7703 H       
@<TRIPOS>BOND
   1    1    2 ar
   2    1   24 1
   3    1    6 ar
   4    2    3 ar
   5    2   11 1
   6    3    4 ar
   7    3   35 1
   8    4    5 ar
   9    4    7 1
  10    5    6 ar
  11    5   36 1
  12    6   37 1
  13    7    8 1
  14    7   38 1
  15    7   39 1
  16    8    9 2
  17    8   10 1
  18   10   33 1
  19   11   12 ar
  20   11   13 ar
  21   12   17 1
  22   12   16 ar
  23   13   14 ar
  24   13   40 1
  25   14   15 ar
  26   14   41 1
  27   15   16 ar
  28   15   34 1
  29   16   42 1
  30   17   18 1
  31   17   43 1
  32   17   44 1
  33   18   19 am
  34   18   22 1
  35   19   20 1
  36   19   23 2
  37   20   21 1
  38   21   22 1
  39   21   27 1
  40   21   45 1
  41   22   26 1
  42   22   46 1
  43   24   25 1
  44   25   47 1
  45   25   48 1
  46   25   49 1
  47   26   50 1
  48   26   51 1
  49   26   52 1
  50   27   28 ar
  51   27   29 ar
  52   28   32 ar
  53   28   53 1
  54   29   30 ar
  55   29   54 1
  56   30   31 ar
  57   30   55 1
  58   31   32 ar
  59   31   56 1
  60   32   57 1
  61   33   58 1
  62   33   59 1
  63   33   60 1

#	End of record

