#	Name: ASD07301004
#	Creating user name:	WinNT
#	Creation time:	15. 06. 2019 21:10

#	Modifying user name:	WinNT
#	Modification time:	15. 06. 2019 21:10

#	Program:	/corina/corina34_cracker 3.40 0067  02.08.2006

@<TRIPOS>MOLECULE
ASD07301004
  30   32    0    0    0
SMALL
NO_CHARGES


@<TRIPOS>ATOM
   1 C1            -0.0171     1.4119     0.0098 C.2     
   2 C2             0.0021    -0.0041     0.0020 C.2     
   3 C3             1.2671    -0.6472    -0.0135 C.2     
   4 C4             2.3777     0.1399    -0.0199 C.2     
   5 N5             2.2502     1.4893    -0.0114 N.pl3   
   6 N6             1.1085     2.0735     0.0026 N.2     
   7 O7            -1.0363    -0.6508     0.0089 O.2     
   8 N8             2.7117     3.4370     1.9536 N.ar    
   9 C9             2.8964     4.3388     2.8874 C.ar    
  10 C10            4.0350     5.1411     2.9157 C.ar    
  11 C11            4.9938     4.9976     1.9538 C.ar    
  12 C12            4.7915     4.0277     0.9533 C.ar    
  13 C13            5.7345     3.8243    -0.0669 C.ar    
  14 C14            5.5104     2.8777    -1.0205 C.ar    
  15 C15            4.3547     2.1032    -1.0028 C.ar    
  16 C16            3.4055     2.2732    -0.0178 C.ar    
  17 C17            3.6105     3.2465     0.9845 C.ar    
  18 O18            1.3663    -2.0035    -0.0213 O.3     
  19 C19            2.6834    -2.5575    -0.0369 C.3     
  20 Br20          -1.6647     2.3398     0.0227 Br      
  21 H21            3.3594    -0.3103    -0.0313 H       
  22 H22            2.1463     4.4630     3.6543 H       
  23 H23            4.1590     5.8761     3.6973 H       
  24 H24            5.8825     5.6113     1.9601 H       
  25 H25            6.6363     4.4179    -0.0957 H       
  26 H26            6.2401     2.7268    -1.8022 H       
  27 H27            4.1994     1.3595    -1.7703 H       
  28 H28            3.2089    -2.2203    -0.9303 H       
  29 H29            3.2262    -2.2293     0.8495 H       
  30 H30            2.6198    -3.6457    -0.0418 H       
@<TRIPOS>BOND
   1    1    2 1
   2    1    6 2
   3    1   20 1
   4    2    3 1
   5    2    7 2
   6    3    4 2
   7    3   18 1
   8    4    5 1
   9    4   21 1
  10    5    6 1
  11    5   16 1
  12    8    9 ar
  13    8   17 ar
  14    9   10 ar
  15    9   22 1
  16   10   11 ar
  17   10   23 1
  18   11   12 ar
  19   11   24 1
  20   12   13 ar
  21   12   17 ar
  22   13   14 ar
  23   13   25 1
  24   14   15 ar
  25   14   26 1
  26   15   16 ar
  27   15   27 1
  28   16   17 ar
  29   18   19 1
  30   19   28 1
  31   19   29 1
  32   19   30 1

#	End of record

