#	Name: ASD01900418
#	Creating user name:	WinNT
#	Creation time:	15. 06. 2019 19:51

#	Modifying user name:	WinNT
#	Modification time:	15. 06. 2019 19:51

#	Program:	/corina/corina34_cracker 3.40 0067  02.08.2006

@<TRIPOS>MOLECULE
ASD01900418
  29   31    0    0    0
SMALL
NO_CHARGES


@<TRIPOS>ATOM
   1 C1            -0.0170     1.4038     0.0098 C.ar    
   2 C2             0.0021    -0.0041     0.0020 C.ar    
   3 C3             1.2302    -0.6643    -0.0128 C.ar    
   4 C4             2.3817     0.0979    -0.0193 C.ar    
   5 C5             2.2883     1.4835    -0.0110 C.ar    
   6 N6             1.1233     2.0902     0.0026 N.ar    
   7 N7            -2.1422     0.6956     0.0262 N.2     
   8 N8            -1.3022    -0.4227     0.0122 N.pl3   
   9 C9            -1.4296     1.7905     0.0312 C.2     
  10 N10           -1.9266     3.0975     0.0450 N.pl3   
  11 C11           -3.3727     3.3312     0.0660 C.3     
  12 C12           -3.6418     4.8139     0.0776 C.ar    
  13 C13           -3.7816     5.4998    -1.1147 C.ar    
  14 C14           -4.0286     6.8603    -1.1051 C.ar    
  15 C15           -4.1358     7.5356     0.1004 C.ar    
  16 C16           -3.9956     6.8470     1.2927 C.ar    
  17 C17           -3.7543     5.4859     1.2802 C.ar    
  18 F18           -4.3767     8.8649     0.1116 F       
  19 Cl19          -4.2036     7.7219    -2.6020 Cl      
  20 H20            1.2794    -1.7432    -0.0187 H       
  21 H21            3.3497    -0.3810    -0.0305 H       
  22 H22            3.1923     2.0745    -0.0158 H       
  23 H23           -1.5963    -1.3470     0.0096 H       
  24 H24           -1.3138     3.8494     0.0405 H       
  25 H25           -3.8255     2.8866    -0.8202 H       
  26 H26           -3.8011     2.8772     0.9596 H       
  27 H27           -3.6975     4.9729    -2.0537 H       
  28 H28           -4.0789     7.3722     2.2327 H       
  29 H29           -3.6496     4.9479     2.2108 H       
@<TRIPOS>BOND
   1    1    2 ar
   2    1    6 ar
   3    1    9 1
   4    2    3 ar
   5    2    8 1
   6    3    4 ar
   7    3   20 1
   8    4    5 ar
   9    4   21 1
  10    5    6 ar
  11    5   22 1
  12    7    8 1
  13    7    9 2
  14    8   23 1
  15    9   10 1
  16   10   11 1
  17   10   24 1
  18   11   12 1
  19   11   25 1
  20   11   26 1
  21   12   13 ar
  22   12   17 ar
  23   13   14 ar
  24   13   27 1
  25   14   15 ar
  26   14   19 1
  27   15   16 ar
  28   15   18 1
  29   16   17 ar
  30   16   28 1
  31   17   29 1

#	End of record

