#	Name: ASD01720157
#	Creating user name:	WinNT
#	Creation time:	15. 06. 2019 19:23

#	Modifying user name:	WinNT
#	Modification time:	15. 06. 2019 19:23

#	Program:	/corina/corina34_cracker 3.40 0067  02.08.2006

@<TRIPOS>MOLECULE
ASD01720157
  57   59    0    0    0
SMALL
NO_CHARGES


@<TRIPOS>ATOM
   1 Cl1            8.5145     3.0972     2.2995 Cl      
   2 O2             0.4816     2.5682     1.3580 O.3     
   3 N3            -2.1297     2.3724     0.0539 N.3     
   4 C4            -1.6644     1.4815     1.1252 C.3     
   5 C5            -3.5788     2.2410    -0.1480 C.3     
   6 C6            -1.7612     3.7671     0.3318 C.3     
   7 C7            -0.1451     1.3253     1.0348 C.3     
   8 C8            -3.9928     3.0225    -1.3964 C.3     
   9 C9            -2.4730     4.2393     1.6012 C.3     
  10 C10            4.6086     2.6689     1.2572 C.ar    
  11 C11            1.8395     2.6013     1.3248 C.ar    
  12 C12            6.0871     2.7051     1.2206 C.2     
  13 C13            3.8887     3.8159     1.5960 C.ar    
  14 C14            3.9297     1.4892     0.9475 C.ar    
  15 C15            2.5111     3.7783     1.6285 C.ar    
  16 C16            2.5519     1.4596     0.9822 C.ar    
  17 C17            6.8004     2.5091    -0.0608 C.ar    
  18 C18            6.7889     2.9181     2.3622 C.2     
  19 C19            6.0875     2.9973     3.6531 C.ar    
  20 C20            7.6158     1.3916    -0.2450 C.ar    
  21 C21            6.6562     3.4379    -1.0923 C.ar    
  22 C22            8.2783     1.2147    -1.4422 C.ar    
  23 C23            7.3241     3.2493    -2.2846 C.ar    
  24 C24            5.1568     2.0157     4.0089 C.ar    
  25 C25            6.3521     4.0516     4.5334 C.ar    
  26 C26            8.1359     2.1424    -2.4587 C.ar    
  27 C27            4.5036     2.0971     5.2204 C.ar    
  28 C28            5.6906     4.1187     5.7413 C.ar    
  29 C29            4.7668     3.1465     6.0836 C.ar    
  30 H30           -1.9289     1.9078     2.0928 H       
  31 H31           -2.1371     0.5053     1.0168 H       
  32 H32           -3.8338     1.1891    -0.2766 H       
  33 H33           -4.1041     2.6386     0.7204 H       
  34 H34           -0.6826     3.8367     0.4728 H       
  35 H35           -2.0594     4.3958    -0.5072 H       
  36 H36            0.1303     1.0321     0.0217 H       
  37 H37            0.1838     0.5591     1.7368 H       
  38 H38           -3.5499     4.2457     1.4329 H       
  39 H39           -2.2377     3.5628     2.4228 H       
  40 H40           -2.1386     5.2459     1.8522 H       
  41 H41           -3.6812     4.0620    -1.2944 H       
  42 H42           -3.5163     2.5848    -2.2737 H       
  43 H43           -5.0759     2.9775    -1.5108 H       
  44 H44            4.4103     4.7315     1.8326 H       
  45 H45            4.4830     0.6010     0.6806 H       
  46 H46            1.9536     4.6642     1.8945 H       
  47 H47            2.0261     0.5460     0.7471 H       
  48 H48            7.7283     0.6671     0.5479 H       
  49 H49            6.0229     4.3023    -0.9577 H       
  50 H50            8.9096     0.3503    -1.5861 H       
  51 H51            7.2134     3.9674    -3.0837 H       
  52 H52            4.9501     1.1964     3.3363 H       
  53 H53            7.0729     4.8107     4.2679 H       
  54 H54            8.6569     1.9995    -3.3939 H       
  55 H55            3.7844     1.3401     5.4965 H       
  56 H56            5.8938     4.9321     6.4222 H       
  57 H57            4.2519     3.2047     7.0312 H       
@<TRIPOS>BOND
   1    1   18 1
   2    2    7 1
   3    2   11 1
   4    3    4 1
   5    3    5 1
   6    3    6 1
   7    4    7 1
   8    4   30 1
   9    4   31 1
  10    5    8 1
  11    5   32 1
  12    5   33 1
  13    6    9 1
  14    6   34 1
  15    6   35 1
  16    7   36 1
  17    7   37 1
  18    8   41 1
  19    8   42 1
  20    8   43 1
  21    9   38 1
  22    9   39 1
  23    9   40 1
  24   10   12 1
  25   10   13 ar
  26   10   14 ar
  27   11   15 ar
  28   11   16 ar
  29   12   17 1
  30   12   18 2
  31   13   15 ar
  32   13   44 1
  33   14   16 ar
  34   14   45 1
  35   15   46 1
  36   16   47 1
  37   17   20 ar
  38   17   21 ar
  39   18   19 1
  40   19   24 ar
  41   19   25 ar
  42   20   22 ar
  43   20   48 1
  44   21   23 ar
  45   21   49 1
  46   22   26 ar
  47   22   50 1
  48   23   26 ar
  49   23   51 1
  50   24   27 ar
  51   24   52 1
  52   25   28 ar
  53   25   53 1
  54   26   54 1
  55   27   29 ar
  56   27   55 1
  57   28   29 ar
  58   28   56 1
  59   29   57 1

#	End of record

