#	Name: ASD03080131
#	Creating user name:	WinNT
#	Creation time:	15. 06. 2019 20:26

#	Modifying user name:	WinNT
#	Modification time:	15. 06. 2019 20:26

#	Program:	/corina/corina34_cracker 3.40 0067  02.08.2006

@<TRIPOS>MOLECULE
ASD03080131
  32   34    0    0    0
SMALL
NO_CHARGES


@<TRIPOS>ATOM
   1 C1            -0.0188     1.5328     0.0105 C.3     
   2 C2             0.0021    -0.0041     0.0020 C.3     
   3 C3             1.4184     2.0557    -0.0004 C.3     
   4 N4             2.3706     0.9410    -0.0748 N.3     
   5 C5             2.2923     0.1047     1.1401 C.3     
   6 C6             0.8734    -0.4442     1.1733 C.2     
   7 C7             5.3766    -0.2878     2.2517 C.ar    
   8 C8             4.6998    -0.4837     1.0578 C.ar    
   9 C9             3.3005    -1.0432     1.0568 C.3     
  10 C10            6.6622     0.2297     2.2043 C.ar    
  11 C11            7.2221     0.5308     0.9774 C.ar    
  12 N12            6.5485     0.3313    -0.1388 N.ar    
  13 C13            5.3245    -0.1590    -0.1317 C.ar    
  14 C14            0.7290    -0.4479    -1.2791 C.3     
  15 C15            2.1442     0.1321    -1.2790 C.3     
  16 O16            0.4713    -1.1670     2.0532 O.2     
  17 H17           -0.5446     1.8947    -0.8731 H       
  18 H18           -0.5276     1.8851     0.9077 H       
  19 H19           -1.0037    -0.4204     0.0590 H       
  20 H20            1.5580     2.7062    -0.8639 H       
  21 H21            1.6011     2.6247     0.9111 H       
  22 H22            2.4821     0.7101     2.0264 H       
  23 H23            4.9119    -0.5283     3.1965 H       
  24 H24            3.1722    -1.7025     1.9153 H       
  25 H25            3.1349    -1.6062     0.1383 H       
  26 H26            7.2188     0.3957     3.1148 H       
  27 H27            8.2229     0.9343     0.9319 H       
  28 H28            4.8042    -0.3090    -1.0662 H       
  29 H29            0.7812    -1.5362    -1.3098 H       
  30 H30            0.1859    -0.0834    -2.1510 H       
  31 H31            2.2765     0.7572    -2.1621 H       
  32 H32            2.8669    -0.6835    -1.3052 H       
@<TRIPOS>BOND
   1    1    2 1
   2    1    3 1
   3    1   17 1
   4    1   18 1
   5    2   14 1
   6    2    6 1
   7    2   19 1
   8    3    4 1
   9    3   20 1
  10    3   21 1
  11    4    5 1
  12    4   15 1
  13    5    6 1
  14    5    9 1
  15    5   22 1
  16    6   16 2
  17    7    8 ar
  18    7   10 ar
  19    7   23 1
  20    8    9 1
  21    8   13 ar
  22    9   24 1
  23    9   25 1
  24   10   11 ar
  25   10   26 1
  26   11   12 ar
  27   11   27 1
  28   12   13 ar
  29   13   28 1
  30   14   15 1
  31   14   29 1
  32   14   30 1
  33   15   31 1
  34   15   32 1

#	End of record

