#	Name: ASD04880676
#	Creating user name:	WinNT
#	Creation time:	15. 06. 2019 20:53

#	Modifying user name:	WinNT
#	Modification time:	15. 06. 2019 20:53

#	Program:	/corina/corina34_cracker 3.40 0067  02.08.2006

@<TRIPOS>MOLECULE
ASD04880676
  51   53    0    0    0
SMALL
NO_CHARGES


@<TRIPOS>ATOM
   1 C1            -0.0285     1.3793     0.2223 C.ar    
   2 C2            -0.0129    -0.0016     0.2707 C.ar    
   3 C3             1.2017    -0.6850     0.2825 C.ar    
   4 C4             2.3970     0.0175     0.2452 C.ar    
   5 C5             2.3896     1.3959     0.1969 C.ar    
   6 C6             1.1759     2.0876     0.1848 C.ar    
   7 O7             1.2148    -2.0434     0.3310 O.3     
   8 C8             2.4942    -2.6798     0.3404 C.3     
   9 C9            -2.3899     0.0708     0.2931 C.3     
  10 O10           -1.1829    -0.6939     0.3073 O.3     
  11 C11            1.1655     3.5606     0.1336 C.2     
  12 N12            0.1078     4.2969     0.1198 N.2     
  13 N13            0.3673     5.6649     0.0692 N.am    
  14 C14            1.8240     5.8724     0.0458 C.3     
  15 C15            2.3941     4.4411     0.0959 C.3     
  16 C16           -0.5638     6.6391     0.0453 C.2     
  17 O17           -0.2251     7.8052     0.1050 O.2     
  18 C18           -1.9979     6.2894    -0.0538 C.ar    
  19 C19           -2.9691     7.2849     0.0661 C.ar    
  20 C20           -4.3048     6.9591    -0.0261 C.ar    
  21 C21           -4.6867     5.6337    -0.2393 C.ar    
  22 C22           -3.7158     4.6381    -0.3592 C.ar    
  23 C23           -2.3799     4.9646    -0.2728 C.ar    
  24 C24            2.2462     6.5812    -1.2427 C.3     
  25 C25            2.2741     6.6688     1.2723 C.3     
  26 C26           -6.1214     5.2837    -0.3378 C.2     
  27 O27           -6.9669     6.1504    -0.2330 O.2     
  28 N28           -6.4903     4.0039    -0.5437 N.am    
  29 H29           -0.9691     1.9098     0.2091 H       
  30 H30            3.3360    -0.5162     0.2545 H       
  31 H31            3.3219     1.9404     0.1687 H       
  32 H32            3.0390    -2.4138    -0.5655 H       
  33 H33            3.0577    -2.3501     1.2132 H       
  34 H34            2.3619    -3.7610     0.3805 H       
  35 H35           -2.4125     0.7302     1.1607 H       
  36 H36           -2.4312     0.6677    -0.6180 H       
  37 H37           -3.2468    -0.6021     0.3257 H       
  38 H38            2.9949     4.2978     0.9940 H       
  39 H39            2.9845     4.2355    -0.7970 H       
  40 H40           -2.6736     8.3105     0.2315 H       
  41 H41           -5.0562     7.7293     0.0671 H       
  42 H42           -4.0115     3.6125    -0.5239 H       
  43 H43           -1.6285     4.1950    -0.3700 H       
  44 H44            1.7706     7.5608    -1.2912 H       
  45 H45            3.3294     6.7022    -1.2526 H       
  46 H46            1.9393     5.9854    -2.1024 H       
  47 H47            1.9869     6.1345     2.1779 H       
  48 H48            3.3572     6.7894     1.2497 H       
  49 H49            1.7990     7.6497     1.2630 H       
  50 H50           -5.8155     3.3121    -0.6274 H       
  51 H51           -7.4306     3.7745    -0.6083 H       
@<TRIPOS>BOND
   1    1    2 ar
   2    1    6 ar
   3    1   29 1
   4    2   10 1
   5    2    3 ar
   6    3    4 ar
   7    3    7 1
   8    4    5 ar
   9    4   30 1
  10    5    6 ar
  11    5   31 1
  12    6   11 1
  13    7    8 1
  14    8   32 1
  15    8   33 1
  16    8   34 1
  17    9   10 1
  18    9   35 1
  19    9   36 1
  20    9   37 1
  21   11   12 2
  22   11   15 1
  23   12   13 1
  24   13   14 1
  25   13   16 am
  26   14   15 1
  27   14   24 1
  28   14   25 1
  29   15   38 1
  30   15   39 1
  31   16   17 2
  32   16   18 1
  33   18   19 ar
  34   18   23 ar
  35   19   20 ar
  36   19   40 1
  37   20   21 ar
  38   20   41 1
  39   21   22 ar
  40   21   26 1
  41   22   23 ar
  42   22   42 1
  43   23   43 1
  44   24   44 1
  45   24   45 1
  46   24   46 1
  47   25   47 1
  48   25   48 1
  49   25   49 1
  50   26   27 2
  51   26   28 am
  52   28   50 1
  53   28   51 1

#	End of record

