#	Name: ASD03330138
#	Creating user name:	WinNT
#	Creation time:	15. 06. 2019 20:36

#	Modifying user name:	WinNT
#	Modification time:	15. 06. 2019 20:36

#	Program:	/corina/corina34_cracker 3.40 0067  02.08.2006

@<TRIPOS>MOLECULE
ASD03330138
  64   68    0    0    0
SMALL
NO_CHARGES


@<TRIPOS>ATOM
   1 N1             0.0844     1.4012    -0.8449 N.am    
   2 C2             0.4297    -0.0250    -0.7703 C.3     
   3 C3             0.7708    -0.5240    -2.1779 C.3     
   4 C4             1.8694     0.3583    -2.7753 C.3     
   5 C5             1.3665     1.7997    -2.8825 C.3     
   6 C6             1.0321     2.3251    -1.4828 C.3     
   7 C7             3.0860     0.3158    -1.8869 C.2     
   8 O8             3.5867     1.3484    -1.4945 O.2     
   9 N9             3.6176    -0.8697    -1.5285 N.am    
  10 C10            2.2316    -0.1504    -4.1468 C.ar    
  11 C11            3.1427     0.5418    -4.9224 C.ar    
  12 C12            3.4749     0.0752    -6.1805 C.ar    
  13 C13            2.8963    -1.0838    -6.6628 C.ar    
  14 C14            1.9858    -1.7766    -5.8869 C.ar    
  15 C15            1.6569    -1.3123    -4.6270 C.ar    
  16 C16           -1.0821     1.8525    -0.3427 C.2     
  17 O17           -1.9873     1.0725    -0.1112 O.2     
  18 C18           -1.2604     3.2823    -0.0754 C.2     
  19 C19           -2.4378     3.8705     0.2777 C.2     
  20 C20           -2.3639     5.2332     0.4787 C.2     
  21 C21           -1.1097     5.7665     0.2875 C.2     
  22 S22            0.0144     4.4896    -0.1558 S.3     
  23 C23           -3.5359     6.0536     0.8677 C.ar    
  24 C24           -4.6961     6.0250     0.0951 C.ar    
  25 C25           -5.7847     6.7894     0.4597 C.ar    
  26 C26           -5.7258     7.5870     1.5943 C.ar    
  27 C27           -4.5722     7.6178     2.3658 C.ar    
  28 C28           -3.4823     6.8511     2.0102 C.ar    
  29 O29           -6.7999     8.3398     1.9504 O.3     
  30 C30           -6.6711     9.1373     3.1291 C.3     
  31 C31           -0.7605     7.1923     0.4371 C.ar    
  32 C32            0.3240     7.5700     1.2348 C.ar    
  33 C33            0.6442     8.9060     1.3697 C.ar    
  34 C34           -0.1053     9.8695     0.7183 C.ar    
  35 C35           -1.1800     9.5023    -0.0722 C.ar    
  36 C36           -1.5080     8.1708    -0.2219 C.ar    
  37 Cl37           1.2646     6.3624     2.0536 Cl      
  38 H38            1.2915    -0.1586    -0.1164 H       
  39 H39           -0.4188    -0.5864    -0.3792 H       
  40 H40            1.1214    -1.5547    -2.1235 H       
  41 H41           -0.1180    -0.4742    -2.8069 H       
  42 H42            2.1410     2.4229    -3.3296 H       
  43 H43            0.4721     1.8276    -3.5048 H       
  44 H44            0.5811     3.3142    -1.5619 H       
  45 H45            1.9430     2.3831    -0.8871 H       
  46 H46            3.2629    -1.6925    -1.9001 H       
  47 H47            4.3550    -0.9001    -0.8991 H       
  48 H48            3.5948     1.4474    -4.5456 H       
  49 H49            4.1862     0.6164    -6.7868 H       
  50 H50            3.1553    -1.4480    -7.6461 H       
  51 H51            1.5335    -2.6820    -6.2638 H       
  52 H52            0.9484    -1.8555    -4.0193 H       
  53 H53           -3.3563     3.3138     0.3910 H       
  54 H54           -4.7423     5.4052    -0.7882 H       
  55 H55           -6.6837     6.7677    -0.1384 H       
  56 H56           -4.5295     8.2397     3.2477 H       
  57 H57           -2.5866     6.8721     2.6133 H       
  58 H58           -7.5971     9.6867     3.2991 H       
  59 H59           -6.4693     8.4921     3.9841 H       
  60 H60           -5.8487     9.8415     3.0032 H       
  61 H61            1.4815     9.1999     1.9854 H       
  62 H62            0.1494    10.9133     0.8276 H       
  63 H63           -1.7607    10.2601    -0.5773 H       
  64 H64           -2.3442     7.8860    -0.8432 H       
@<TRIPOS>BOND
   1    1    2 1
   2    1    6 1
   3    1   16 am
   4    2    3 1
   5    2   38 1
   6    2   39 1
   7    3    4 1
   8    3   40 1
   9    3   41 1
  10    4    5 1
  11    4    7 1
  12    4   10 1
  13    5    6 1
  14    5   42 1
  15    5   43 1
  16    6   44 1
  17    6   45 1
  18    7    8 2
  19    7    9 am
  20    9   46 1
  21    9   47 1
  22   10   11 ar
  23   10   15 ar
  24   11   12 ar
  25   11   48 1
  26   12   13 ar
  27   12   49 1
  28   13   14 ar
  29   13   50 1
  30   14   15 ar
  31   14   51 1
  32   15   52 1
  33   16   17 2
  34   16   18 1
  35   18   19 2
  36   18   22 1
  37   19   20 1
  38   19   53 1
  39   20   21 2
  40   20   23 1
  41   21   22 1
  42   21   31 1
  43   23   24 ar
  44   23   28 ar
  45   24   25 ar
  46   24   54 1
  47   25   26 ar
  48   25   55 1
  49   26   27 ar
  50   26   29 1
  51   27   28 ar
  52   27   56 1
  53   28   57 1
  54   29   30 1
  55   30   58 1
  56   30   59 1
  57   30   60 1
  58   31   32 ar
  59   31   36 ar
  60   32   33 ar
  61   32   37 1
  62   33   34 ar
  63   33   61 1
  64   34   35 ar
  65   34   62 1
  66   35   36 ar
  67   35   63 1
  68   36   64 1

#	End of record

