#	Name: ASD08830041
#	Creating user name:	WinNT
#	Creation time:	15. 06. 2019 21:19

#	Modifying user name:	WinNT
#	Modification time:	15. 06. 2019 21:19

#	Program:	/corina/corina34_cracker 3.40 0067  02.08.2006

@<TRIPOS>MOLECULE
ASD08830041
  59   62    0    0    0
SMALL
NO_CHARGES


@<TRIPOS>ATOM
   1 C1             0.2619     1.5500    -1.6540 C.ar    
   2 C2             0.2117     0.1473    -1.4483 C.ar    
   3 C3             1.4962     2.2227    -1.5776 C.ar    
   4 C4             2.6315     1.5311    -1.3089 C.ar    
   5 C5             2.5963     0.1375    -1.1030 C.ar    
   6 C6             1.3944    -0.5535    -1.1715 C.ar    
   7 C7             3.8415    -0.5897    -0.8140 C.2     
   8 C8             5.1492     0.1554    -0.7390 C.3     
   9 C9             6.2794    -0.8279    -0.4278 C.3     
  10 N10            7.5541    -0.1015    -0.3547 N.3     
  11 O11            3.8159    -1.7890    -0.6361 O.2     
  12 C12            8.6217    -0.9630     0.1724 C.3     
  13 C13           -0.9246     2.2454    -1.9371 C.ar    
  14 C14           -1.0254    -0.5174    -1.5263 C.ar    
  15 C15           -2.1553     0.1918    -1.7973 C.ar    
  16 C16           -2.1037     1.5676    -2.0104 C.ar    
  17 C17            7.4193     1.1189     0.4527 C.3     
  18 C18            9.9461    -0.1962     0.1581 C.3     
  19 C19            8.7438     1.8858     0.4384 C.3     
  20 N20            9.8113     1.0243     0.9655 N.3     
  21 C21           11.0861     1.7506     1.0387 C.3     
  22 C22           10.8818     3.0645     1.7956 C.3     
  23 C23           10.4785     2.7632     3.2404 C.3     
  24 C24           12.1848     3.8663     1.7865 C.3     
  25 C25           11.9805     5.1801     2.5434 C.3     
  26 C26           11.5772     4.8789     3.9882 C.3     
  27 C27           10.2741     4.0771     3.9974 C.3     
  28 H28            1.5391     3.2905    -1.7335 H       
  29 H29            3.5743     2.0548    -1.2524 H       
  30 H30            1.3704    -1.6216    -1.0132 H       
  31 H31            5.3448     0.6433    -1.6940 H       
  32 H32            5.0945     0.9071     0.0485 H       
  33 H33            6.0839    -1.3157     0.5271 H       
  34 H34            6.3341    -1.5795    -1.2153 H       
  35 H35            8.3817    -1.2552     1.1947 H       
  36 H36            8.7105    -1.8538    -0.4494 H       
  37 H37           -0.9024     3.3134    -2.0958 H       
  38 H38           -1.0785    -1.5851    -1.3722 H       
  39 H39           -3.1040    -0.3209    -1.8570 H       
  40 H40           -3.0147     2.1071    -2.2234 H       
  41 H41            6.6316     1.7460     0.0352 H       
  42 H42            7.1656     0.8504     1.4782 H       
  43 H43           10.7339    -0.8232     0.5756 H       
  44 H44           10.1998     0.0724    -0.8674 H       
  45 H45            8.9838     2.1780    -0.5839 H       
  46 H46            8.6550     2.7766     1.0603 H       
  47 H47           11.8224     1.1406     1.5619 H       
  48 H48           11.4412     1.9636     0.0304 H       
  49 H49           10.0952     3.6438     1.3121 H       
  50 H50            9.5502     2.1920     3.2470 H       
  51 H51           11.2650     2.1839     3.7239 H       
  52 H52           12.9713     3.2869     2.2700 H       
  53 H53           12.4721     4.0809     0.7571 H       
  54 H54           12.9088     5.7513     2.5369 H       
  55 H55           11.1940     5.7595     2.0599 H       
  56 H56           12.3637     4.2995     4.4718 H       
  57 H57           11.4316     5.8149     4.5275 H       
  58 H58            9.4876     4.6564     3.5139 H       
  59 H59            9.9868     3.8625     5.0267 H       
@<TRIPOS>BOND
   1    1    2 ar
   2    1    3 ar
   3    1   13 ar
   4    2   14 ar
   5    2    6 ar
   6    3    4 ar
   7    3   28 1
   8    4    5 ar
   9    4   29 1
  10    5    6 ar
  11    5    7 1
  12    6   30 1
  13    7    8 1
  14    7   11 2
  15    8    9 1
  16    8   31 1
  17    8   32 1
  18    9   10 1
  19    9   33 1
  20    9   34 1
  21   10   12 1
  22   10   17 1
  23   12   18 1
  24   12   35 1
  25   12   36 1
  26   13   16 ar
  27   13   37 1
  28   14   15 ar
  29   14   38 1
  30   15   16 ar
  31   15   39 1
  32   16   40 1
  33   17   19 1
  34   17   41 1
  35   17   42 1
  36   18   20 1
  37   18   43 1
  38   18   44 1
  39   19   20 1
  40   19   45 1
  41   19   46 1
  42   20   21 1
  43   21   22 1
  44   21   47 1
  45   21   48 1
  46   22   23 1
  47   22   24 1
  48   22   49 1
  49   23   27 1
  50   23   50 1
  51   23   51 1
  52   24   25 1
  53   24   52 1
  54   24   53 1
  55   25   26 1
  56   25   54 1
  57   25   55 1
  58   26   27 1
  59   26   56 1
  60   26   57 1
  61   27   58 1
  62   27   59 1

#	End of record

