#	Name: ASD00170192
#	Creating user name:	WinNT
#	Creation time:	15. 06. 2019 18:31

#	Modifying user name:	WinNT
#	Modification time:	15. 06. 2019 18:31

#	Program:	/corina/corina34_cracker 3.40 0067  02.08.2006

@<TRIPOS>MOLECULE
ASD00170192
  36   38    0    0    0
SMALL
NO_CHARGES


@<TRIPOS>ATOM
   1 C1            -0.0144     1.3328    -0.1104 C.2     
   2 C2             0.0056    -0.0012    -0.1407 C.2     
   3 C3            -1.3204    -0.5793     0.0264 C.2     
   4 C4            -2.3072     0.3600     0.1721 C.2     
   5 S5            -1.6530     1.9297     0.1175 S.3     
   6 C6             1.2015     2.2261    -0.2459 C.3     
   7 C7             2.0518     1.7761    -1.4326 C.3     
   8 C8             3.0745     0.7479    -0.9571 C.3     
   9 C9             2.4801    -0.0896     0.1730 C.3     
  10 C10            1.2552    -0.8423    -0.3376 C.3     
  11 N11           -3.6460     0.0727     0.3436 N.pl3   
  12 C12           -1.5739    -2.0197     0.0370 C.2     
  13 C13           -1.8293    -2.7351    -1.2325 C.ar    
  14 O14           -1.5746    -2.6301     1.0906 O.2     
  15 C15           -1.9616    -4.1242    -1.2395 C.ar    
  16 C16           -2.1999    -4.7855    -2.4275 C.ar    
  17 C17           -2.3069    -4.0737    -3.6096 C.ar    
  18 C18           -2.1762    -2.6962    -3.6089 C.ar    
  19 C19           -1.9446    -2.0228    -2.4275 C.ar    
  20 I20           -2.3990    -6.8710    -2.4413 I       
  21 H21            0.8785     3.2553    -0.4020 H       
  22 H22            1.7952     2.1696     0.6665 H       
  23 H23            1.4101     1.3274    -2.1909 H       
  24 H24            2.5702     2.6363    -1.8560 H       
  25 H25            3.3455     0.0957    -1.7874 H       
  26 H26            3.9651     1.2627    -0.5966 H       
  27 H27            3.2241    -0.8039     0.5255 H       
  28 H28            2.1877     0.5645     0.9944 H       
  29 H29            1.1512    -1.7781     0.2115 H       
  30 H30            1.3810    -1.0599    -1.3982 H       
  31 H31           -3.9557    -0.8451     0.2910 H       
  32 H32           -4.2774     0.7884     0.5166 H       
  33 H33           -1.8775    -4.6806    -0.3177 H       
  34 H34           -2.4930    -4.5957    -4.5366 H       
  35 H35           -2.2601    -2.1466    -4.5348 H       
  36 H36           -1.8428    -0.9476    -2.4285 H       
@<TRIPOS>BOND
   1    1    2 2
   2    1    6 1
   3    1    5 1
   4    2    3 1
   5    2   10 1
   6    3    4 2
   7    3   12 1
   8    4    5 1
   9    4   11 1
  10    6    7 1
  11    6   21 1
  12    6   22 1
  13    7    8 1
  14    7   23 1
  15    7   24 1
  16    8    9 1
  17    8   25 1
  18    8   26 1
  19    9   10 1
  20    9   27 1
  21    9   28 1
  22   10   29 1
  23   10   30 1
  24   11   31 1
  25   11   32 1
  26   12   13 1
  27   12   14 2
  28   13   15 ar
  29   13   19 ar
  30   15   16 ar
  31   15   33 1
  32   16   17 ar
  33   16   20 1
  34   17   18 ar
  35   17   34 1
  36   18   19 ar
  37   18   35 1
  38   19   36 1

#	End of record

