#	Name: ASD01940495
#	Creating user name:	WinNT
#	Creation time:	15. 06. 2019 20:12

#	Modifying user name:	WinNT
#	Modification time:	15. 06. 2019 20:12

#	Program:	/corina/corina34_cracker 3.40 0067  02.08.2006

@<TRIPOS>MOLECULE
ASD01940495
  29   31    0    0    0
SMALL
NO_CHARGES


@<TRIPOS>ATOM
   1 N1             0.0516     1.3354    -0.0366 N.pl3   
   2 N2            -1.5814    -2.3040     2.3536 N.pl3   
   3 N3            -2.5667    -1.3323     2.1401 N.2     
   4 C4            -2.0638    -0.3365     1.4695 C.2     
   5 C5            -0.7012    -0.6106     1.2056 C.ar    
   6 C6             0.3167     0.0918     0.5347 C.ar    
   7 C7             1.5808    -0.4592     0.4455 C.ar    
   8 C8             1.8502    -1.6974     1.0122 C.ar    
   9 C9             0.8655    -2.3972     1.6717 C.ar    
  10 C10           -0.4177    -1.8645     1.7762 C.ar    
  11 N11            2.6550     0.2759    -0.2597 N.pl3   
  12 O12            3.7891    -0.1681    -0.2734 O.2     
  13 O13            2.4047     1.3246    -0.8263 O.2     
  14 C14           -0.2931     1.4244    -1.3892 C.ar    
  15 C15           -0.6766     2.6468    -1.9321 C.ar    
  16 C16           -1.0160     2.7305    -3.2695 C.ar    
  17 C17           -0.9749     1.6003    -4.0668 C.ar    
  18 C18           -0.5944     0.3843    -3.5291 C.ar    
  19 C19           -0.2479     0.2946    -2.1945 C.ar    
  20 I20           -1.4908     1.7314    -6.0931 I       
  21 F21           -0.7176     3.7500    -1.1533 F       
  22 H22            0.1023     2.1386     0.5049 H       
  23 H23           -1.7002    -3.1403     2.8304 H       
  24 H24           -2.5980     0.5514     1.1650 H       
  25 H25            2.8426    -2.1162     0.9345 H       
  26 H26            1.0874    -3.3599     2.1082 H       
  27 H27           -1.3139     3.6786    -3.6923 H       
  28 H28           -0.5642    -0.4958    -4.1543 H       
  29 H29            0.0537    -0.6547    -1.7771 H       
@<TRIPOS>BOND
   1    1    6 1
   2    1   14 1
   3    1   22 1
   4    2    3 1
   5    2   10 1
   6    2   23 1
   7    3    4 2
   8    4    5 1
   9    4   24 1
  10    5    6 ar
  11    5   10 ar
  12    6    7 ar
  13    7    8 ar
  14    7   11 1
  15    8    9 ar
  16    8   25 1
  17    9   10 ar
  18    9   26 1
  19   11   12 2
  20   11   13 2
  21   14   15 ar
  22   14   19 ar
  23   15   16 ar
  24   15   21 1
  25   16   17 ar
  26   16   27 1
  27   17   18 ar
  28   17   20 1
  29   18   19 ar
  30   18   28 1
  31   19   29 1

#	End of record

