#	Name: ASD01420089
#	Creating user name:	WinNT
#	Creation time:	15. 06. 2019 19:20

#	Modifying user name:	WinNT
#	Modification time:	15. 06. 2019 19:20

#	Program:	/corina/corina34_cracker 3.40 0067  02.08.2006

@<TRIPOS>MOLECULE
ASD01420089
  45   47    0    0    0
SMALL
NO_CHARGES


@<TRIPOS>ATOM
   1 C1            -0.0144     1.2120     0.0087 C.2     
   2 O2             0.1232     0.0706     0.4054 O.2     
   3 C3             1.1493     2.1122    -0.0629 C.ar    
   4 C4             2.0746     2.1528     0.9915 C.ar    
   5 C5             3.1655     3.0011     0.9159 C.ar    
   6 C6             3.3418     3.8077    -0.1990 C.ar    
   7 C7             2.4252     3.7686    -1.2451 C.ar    
   8 C8             1.3396     2.9256    -1.1841 C.ar    
   9 C9             2.6252     4.6490    -2.4517 C.3     
  10 C10            2.7552     3.7779    -3.7028 C.3     
  11 C11            1.4247     5.5852    -2.6046 C.3     
  12 O12            4.4125     4.6387    -0.2693 O.3     
  13 O13            1.9002     1.3636     2.0810 O.3     
  14 C14           -2.4568     0.8532    -0.4672 C.3     
  15 N15           -1.2307     1.6515    -0.3706 N.am    
  16 C16           -1.5812     3.0196    -0.7648 C.3     
  17 C17           -3.0504     3.0371    -1.1042 C.ar    
  18 C18           -3.8750     4.0655    -1.5291 C.ar    
  19 C19           -5.2120     3.8249    -1.7795 C.ar    
  20 C20           -5.7298     2.5485    -1.6046 C.ar    
  21 C21           -4.9025     1.5211    -1.1794 C.ar    
  22 C22           -3.5637     1.7669    -0.9297 C.ar    
  23 O23           -7.0449     2.3074    -1.8494 O.3     
  24 C24           -7.5078     0.9705    -1.6480 C.3     
  25 Cl25          -6.2431     5.1163    -2.3114 Cl      
  26 H26            3.8796     3.0355     1.7253 H       
  27 H27            0.6328     2.8949    -2.0001 H       
  28 H28            3.5325     5.2395    -2.3243 H       
  29 H29            2.8998     4.4147    -4.5755 H       
  30 H30            3.6104     3.1110    -3.5939 H       
  31 H31            1.8479     3.1874    -3.8302 H       
  32 H32            1.3321     6.2058    -1.7134 H       
  33 H33            1.5693     6.2219    -3.4774 H       
  34 H34            0.5174     4.9947    -2.7320 H       
  35 H35            5.1933     4.2404    -0.6777 H       
  36 H36            2.3197     0.4953     2.0089 H       
  37 H37           -2.3173     0.0476    -1.1881 H       
  38 H38           -2.7049     0.4374     0.5094 H       
  39 H39           -1.3846     3.7038     0.0607 H       
  40 H40           -0.9971     3.3140    -1.6368 H       
  41 H41           -3.4717     5.0582    -1.6646 H       
  42 H42           -5.3033     0.5276    -1.0423 H       
  43 H43           -6.9590     0.2935    -2.3028 H       
  44 H44           -7.3456     0.6824    -0.6094 H       
  45 H45           -8.5717     0.9158    -1.8784 H       
@<TRIPOS>BOND
   1    1    2 2
   2    1    3 1
   3    1   15 am
   4    3    4 ar
   5    3    8 ar
   6    4    5 ar
   7    4   13 1
   8    5    6 ar
   9    5   26 1
  10    6    7 ar
  11    6   12 1
  12    7    8 ar
  13    7    9 1
  14    8   27 1
  15    9   10 1
  16    9   11 1
  17    9   28 1
  18   10   29 1
  19   10   30 1
  20   10   31 1
  21   11   32 1
  22   11   33 1
  23   11   34 1
  24   12   35 1
  25   13   36 1
  26   14   15 1
  27   14   22 1
  28   14   37 1
  29   14   38 1
  30   15   16 1
  31   16   17 1
  32   16   39 1
  33   16   40 1
  34   17   18 ar
  35   17   22 ar
  36   18   19 ar
  37   18   41 1
  38   19   20 ar
  39   19   25 1
  40   20   21 ar
  41   20   23 1
  42   21   22 ar
  43   21   42 1
  44   23   24 1
  45   24   43 1
  46   24   44 1
  47   24   45 1

#	End of record

