#	Name: ASD02198130
#	Creating user name:	WinNT
#	Creation time:	15. 06. 2019 20:18

#	Modifying user name:	WinNT
#	Modification time:	15. 06. 2019 20:18

#	Program:	/corina/corina34_cracker 3.40 0067  02.08.2006

@<TRIPOS>MOLECULE
ASD02198130
  52   55    0    0    0
SMALL
NO_CHARGES


@<TRIPOS>ATOM
   1 C1             0.3563     1.5346    -0.2360 C.2     
   2 C2             0.1926     0.1662    -0.2445 C.2     
   3 C3            -1.0725    -0.4700    -0.0317 C.1     
   4 S4             1.9841     1.9537    -0.5216 S.3     
   5 C5             2.4627     0.2692    -0.6562 C.2     
   6 C6             1.3696    -0.5426    -0.4793 C.2     
   7 C7             3.7744    -0.1823    -0.9092 C.2     
   8 C8             4.8414     0.7886    -1.2267 C.2     
   9 O9             4.0279    -1.3744    -0.8659 O.2     
  10 N10            1.4303    -1.9273    -0.5296 N.pl3   
  11 N11           -0.6595     2.4417    -0.0304 N.pl3   
  12 N12           -2.0761    -0.9746     0.1372 N.1     
  13 C13            4.6792     2.1783    -1.4206 C.2     
  14 C14           -0.3705     3.7975     0.0711 C.ar    
  15 C15           -1.2710     4.7508    -0.4314 C.ar    
  16 N16            5.8508     2.6908    -1.6815 N.2     
  17 N17            6.8059     1.6680    -1.6674 N.pl3   
  18 C18            6.1829     0.5082    -1.3832 C.2     
  19 C19            8.1784     1.8248    -1.9039 C.ar    
  20 C20            8.6227     2.7630    -2.8260 C.ar    
  21 C21            6.8306    -0.8476    -1.2673 C.3     
  22 C22           -0.9681     6.1105    -0.3223 C.ar    
  23 C23            0.2083     6.5068     0.2758 C.ar    
  24 C24            1.0949     5.5635     0.7702 C.ar    
  25 C25            0.8078     4.2169     0.6753 C.ar    
  26 C26            9.0969     1.0462    -1.2124 C.ar    
  27 C27           10.4488     1.2033    -1.4474 C.ar    
  28 C28           10.8880     2.1352    -2.3698 C.ar    
  29 C29            9.9759     2.9154    -3.0566 C.ar    
  30 C30           -2.5268     4.3199    -1.0701 C.2     
  31 O31           -2.8254     3.1422    -1.0901 O.2     
  32 O32           -3.3445     5.2320    -1.6320 O.3     
  33 C33           -4.5646     4.7357    -2.2430 C.3     
  34 H34            2.2770    -2.3699    -0.6970 H       
  35 H35            0.6260    -2.4532    -0.3974 H       
  36 H36           -1.5765     2.1344     0.0435 H       
  37 H37            3.7478     2.7220    -1.3632 H       
  38 H38            7.9109     3.3726    -3.3627 H       
  39 H39            7.1443    -1.0135    -0.2367 H       
  40 H40            6.1160    -1.6177    -1.5580 H       
  41 H41            7.6999    -0.8923    -1.9234 H       
  42 H42           -1.6551     6.8500    -0.7065 H       
  43 H43            0.4408     7.5581     0.3593 H       
  44 H44            2.0145     5.8844     1.2369 H       
  45 H45            1.5042     3.4882     1.0631 H       
  46 H46            8.7545     0.3187    -0.4914 H       
  47 H47           11.1637     0.5980    -0.9098 H       
  48 H48           11.9456     2.2565    -2.5516 H       
  49 H49           10.3219     3.6424    -3.7764 H       
  50 H50           -4.3132     4.0368    -3.0408 H       
  51 H51           -5.1668     4.2268    -1.4904 H       
  52 H52           -5.1296     5.5711    -2.6566 H       
@<TRIPOS>BOND
   1    1    2 2
   2    1    4 1
   3    1   11 1
   4    2    3 1
   5    2    6 1
   6    3   12 3
   7    4    5 1
   8    5    6 2
   9    5    7 1
  10    6   10 1
  11    7    8 1
  12    7    9 2
  13    8   13 1
  14    8   18 2
  15   10   34 1
  16   10   35 1
  17   11   14 1
  18   11   36 1
  19   13   16 2
  20   13   37 1
  21   14   15 ar
  22   14   25 ar
  23   15   22 ar
  24   15   30 1
  25   16   17 1
  26   17   18 1
  27   17   19 1
  28   18   21 1
  29   19   20 ar
  30   19   26 ar
  31   20   29 ar
  32   20   38 1
  33   21   39 1
  34   21   40 1
  35   21   41 1
  36   22   23 ar
  37   22   42 1
  38   23   24 ar
  39   23   43 1
  40   24   25 ar
  41   24   44 1
  42   25   45 1
  43   26   27 ar
  44   26   46 1
  45   27   28 ar
  46   27   47 1
  47   28   29 ar
  48   28   48 1
  49   29   49 1
  50   30   31 2
  51   30   32 1
  52   32   33 1
  53   33   50 1
  54   33   51 1
  55   33   52 1

#	End of record

