#	Name: ASD01911644
#	Creating user name:	WinNT
#	Creation time:	15. 06. 2019 19:58

#	Modifying user name:	WinNT
#	Modification time:	15. 06. 2019 19:58

#	Program:	/corina/corina34_cracker 3.40 0067  02.08.2006

@<TRIPOS>MOLECULE
ASD01911644
  63   68    0    0    0
SMALL
NO_CHARGES


@<TRIPOS>ATOM
   1 C1             0.0451     1.3728     0.3128 C.ar    
   2 C2             0.0546    -0.0071     0.3423 C.ar    
   3 C3             1.2082    -0.7010    -0.0162 C.ar    
   4 C4             2.3467     0.0029    -0.4027 C.ar    
   5 C5             2.3262     1.3827    -0.4286 C.ar    
   6 C6             1.1782     2.0667    -0.0717 C.ar    
   7 C7             1.2245    -2.1850     0.0141 C.2     
   8 N8             0.2179    -2.9602     0.3595 N.2     
   9 C9             2.3148    -3.0030    -0.3268 C.2     
  10 C10            1.9271    -4.3012    -0.1683 C.2     
  11 N11            0.6312    -4.2944     0.2563 N.pl3   
  12 C12            2.7602    -5.4991    -0.4154 C.ar    
  13 C13            2.4519    -6.7076     0.2094 C.ar    
  14 C14            3.2325    -7.8210    -0.0250 C.ar    
  15 C15            4.3191    -7.7404    -0.8776 C.ar    
  16 C16            4.6303    -6.5447    -1.4998 C.ar    
  17 C17            3.8537    -5.4258    -1.2784 C.ar    
  18 C18           -0.1845    -5.4746     0.5531 C.3     
  19 C19           -0.1035    -5.7838     2.0258 C.2     
  20 N20           -0.7788    -6.8347     2.5319 N.am    
  21 O21            0.5693    -5.0869     2.7556 O.2     
  22 C22           -0.7136    -7.1541     3.9661 C.3     
  23 C23           -1.6053    -7.6889     1.6656 C.3     
  24 C24           -2.9982    -7.8146     2.2921 C.3     
  25 N25           -2.8674    -8.2788     3.6796 N.3     
  26 C26           -2.1433    -7.3020     4.4973 C.3     
  27 C27           -4.1071    -8.5596     4.2277 C.ar    
  28 N28           -4.9885    -7.5936     4.4023 N.ar    
  29 C29           -4.4363    -9.8832     4.5973 C.ar    
  30 C30           -5.7155   -10.1318     5.1556 C.ar    
  31 C31           -6.5971    -9.0443     5.3144 C.ar    
  32 C32           -6.1903    -7.8067     4.9228 C.ar    
  33 C33           -3.5410   -10.9467     4.4281 C.ar    
  34 C34           -3.9124   -12.2040     4.8023 C.ar    
  35 C35           -5.1690   -12.4482     5.3502 C.ar    
  36 C36           -6.0648   -11.4364     5.5294 C.ar    
  37 H37           -0.8501     1.9117     0.5862 H       
  38 H38           -0.8305    -0.5479     0.6430 H       
  39 H39            3.2437    -0.5302    -0.6812 H       
  40 H40            3.2082     1.9294    -0.7281 H       
  41 H41            1.1666     3.1464    -0.0930 H       
  42 H42            3.2863    -2.6644    -0.6555 H       
  43 H43            1.6041    -6.7716     0.8754 H       
  44 H44            2.9950    -8.7571     0.4583 H       
  45 H45            4.9271    -8.6146    -1.0579 H       
  46 H46            5.4802    -6.4879    -2.1637 H       
  47 H47            4.0975    -4.4930    -1.7650 H       
  48 H48           -1.2211    -5.2779     0.2796 H       
  49 H49            0.1867    -6.3257    -0.0178 H       
  50 H50           -0.1714    -8.0889     4.1087 H       
  51 H51           -0.2068    -6.3488     4.4979 H       
  52 H52           -1.6879    -7.2370     0.6771 H       
  53 H53           -1.1504    -8.6760     1.5832 H       
  54 H54           -3.4921    -6.8430     2.2786 H       
  55 H55           -3.5896    -8.5317     1.7228 H       
  56 H56           -2.1090    -7.6468     5.5308 H       
  57 H57           -2.6534    -6.3398     4.4513 H       
  58 H58           -7.5807    -9.1915     5.7354 H       
  59 H59           -6.8642    -6.9715     5.0435 H       
  60 H60           -2.5633   -10.7721     4.0037 H       
  61 H61           -3.2213   -13.0235     4.6714 H       
  62 H62           -5.4378   -13.4540     5.6375 H       
  63 H63           -7.0363   -11.6387     5.9557 H       
@<TRIPOS>BOND
   1    1    2 ar
   2    1    6 ar
   3    1   37 1
   4    2    3 ar
   5    2   38 1
   6    3    4 ar
   7    3    7 1
   8    4    5 ar
   9    4   39 1
  10    5    6 ar
  11    5   40 1
  12    6   41 1
  13    7    8 2
  14    7    9 1
  15    8   11 1
  16    9   10 2
  17    9   42 1
  18   10   11 1
  19   10   12 1
  20   11   18 1
  21   12   13 ar
  22   12   17 ar
  23   13   14 ar
  24   13   43 1
  25   14   15 ar
  26   14   44 1
  27   15   16 ar
  28   15   45 1
  29   16   17 ar
  30   16   46 1
  31   17   47 1
  32   18   19 1
  33   18   48 1
  34   18   49 1
  35   19   20 am
  36   19   21 2
  37   20   22 1
  38   20   23 1
  39   22   26 1
  40   22   50 1
  41   22   51 1
  42   23   24 1
  43   23   52 1
  44   23   53 1
  45   24   25 1
  46   24   54 1
  47   24   55 1
  48   25   26 1
  49   25   27 1
  50   26   56 1
  51   26   57 1
  52   27   28 ar
  53   27   29 ar
  54   28   32 ar
  55   29   30 ar
  56   29   33 ar
  57   30   31 ar
  58   30   36 ar
  59   31   32 ar
  60   31   58 1
  61   32   59 1
  62   33   34 ar
  63   33   60 1
  64   34   35 ar
  65   34   61 1
  66   35   36 ar
  67   35   62 1
  68   36   63 1

#	End of record

