#	Name: ASD01900846
#	Creating user name:	WinNT
#	Creation time:	15. 06. 2019 19:52

#	Modifying user name:	WinNT
#	Modification time:	15. 06. 2019 19:52

#	Program:	/corina/corina34_cracker 3.40 0067  02.08.2006

@<TRIPOS>MOLECULE
ASD01900846
  29   30    0    0    0
SMALL
NO_CHARGES


@<TRIPOS>ATOM
   1 N1            -0.0112     1.3131     0.0152 N.ar    
   2 C2             0.0158    -0.0036     0.0356 C.ar    
   3 C3             1.0582    -0.7037    -0.5579 C.ar    
   4 C4             2.0798    -0.0033    -1.1776 C.ar    
   5 C5             2.0243     1.3822    -1.1831 C.ar    
   6 C6             0.9495     2.0197    -0.5689 C.ar    
   7 C7             0.8771     3.4991    -0.5671 C.2     
   8 O8             1.7533     4.1511    -1.1001 O.2     
   9 N9            -0.1606     4.1223     0.0257 N.am    
  10 C10           -0.1739     5.5173     0.1259 C.ar    
  11 C11           -1.3739     6.2093     0.0320 C.ar    
  12 C12           -1.3835     7.5912     0.1316 C.ar    
  13 C13           -0.1935     8.2809     0.3252 C.ar    
  14 C14            1.0003     7.5899     0.4185 C.ar    
  15 C15            1.0125     6.2114     0.3252 C.ar    
  16 O16           -2.5566     8.2715     0.0396 O.3     
  17 C17           -3.7413     7.4978    -0.1600 C.3     
  18 Cl18          -0.2052    10.0124     0.4495 Cl      
  19 F19           -0.9831    -0.6817     0.6419 F       
  20 H20            1.0722    -1.7834    -0.5360 H       
  21 H21            2.9016    -0.5246    -1.6459 H       
  22 H22            2.8045     1.9592    -1.6572 H       
  23 H23           -0.8982     3.6033     0.3829 H       
  24 H24           -2.2981     5.6714    -0.1189 H       
  25 H25            1.9244     8.1283     0.5690 H       
  26 H26            1.9458     5.6735     0.4029 H       
  27 H27           -3.6555     6.9349    -1.0894 H       
  28 H28           -3.8683     6.8063     0.6731 H       
  29 H29           -4.6039     8.1618    -0.2157 H       
@<TRIPOS>BOND
   1    1    2 ar
   2    1    6 ar
   3    2    3 ar
   4    2   19 1
   5    3    4 ar
   6    3   20 1
   7    4    5 ar
   8    4   21 1
   9    5    6 ar
  10    5   22 1
  11    6    7 1
  12    7    8 2
  13    7    9 am
  14    9   10 1
  15    9   23 1
  16   10   11 ar
  17   10   15 ar
  18   11   12 ar
  19   11   24 1
  20   12   13 ar
  21   12   16 1
  22   13   14 ar
  23   13   18 1
  24   14   15 ar
  25   14   25 1
  26   15   26 1
  27   16   17 1
  28   17   27 1
  29   17   28 1
  30   17   29 1

#	End of record

