#	Name: ASD01881713
#	Creating user name:	WinNT
#	Creation time:	15. 06. 2019 19:43

#	Modifying user name:	WinNT
#	Modification time:	15. 06. 2019 19:43

#	Program:	/corina/corina34_cracker 3.40 0067  02.08.2006

@<TRIPOS>MOLECULE
ASD01881713
  60   63    0    0    0
SMALL
NO_CHARGES


@<TRIPOS>ATOM
   1 N1            -0.0178     1.4650     0.0101 N.am    
   2 C2             0.0021    -0.0041     0.0020 C.3     
   3 C3             0.8580    -0.4791    -1.1763 C.3     
   4 C4             2.2423     0.1678    -1.0896 C.3     
   5 C5             2.1025     1.6893    -1.1766 C.3     
   6 C6             1.2607     2.1889     0.0018 C.3     
   7 C7            -1.1868     2.1359     0.0193 C.2     
   8 O8            -2.2375     1.5256     0.0210 O.2     
   9 O9            -1.1902     3.4822     0.0266 O.3     
  10 O10            2.8551    -0.1838     0.1525 O.3     
  11 O11            0.9920    -1.9009    -1.1259 O.3     
  12 C12            3.1114    -0.3311    -2.2457 C.3     
  13 O13            4.4040     0.2728    -2.1650 O.3     
  14 N14            8.2163    -0.9258    -5.9112 N.pl3   
  15 N15            9.2204    -0.1041    -5.3781 N.2     
  16 N16            8.7737     0.4926    -4.3298 N.2     
  17 C17            7.4965     0.1317    -4.0937 C.ar    
  18 C18            7.1174    -0.7781    -5.0959 C.ar    
  19 C19            6.5702     0.4830    -3.1021 C.ar    
  20 C20            5.3050    -0.0664    -3.1254 C.ar    
  21 C21            4.9439    -0.9664    -4.1252 C.ar    
  22 C22            5.8367    -1.3192    -5.0975 C.ar    
  23 C23            8.3156    -1.7699    -7.1044 C.3     
  24 C24            8.8144    -3.1602    -6.7054 C.3     
  25 C25            8.8744    -4.2297    -7.7980 C.3     
  26 C26           10.1668    -3.6118    -7.2605 C.3     
  27 Br27           7.0517     1.7039    -1.7407 Br      
  28 C28           -2.4856     4.1381     0.0364 C.3     
  29 C29           -3.2605     3.7182     1.2870 C.3     
  30 C30           -2.2890     5.6554     0.0437 C.3     
  31 C31           -3.2723     3.7317    -1.2114 C.3     
  32 H32            0.4307    -0.3688     0.9355 H       
  33 H33           -1.0141    -0.3827    -0.1084 H       
  34 H34            0.3799    -0.1912    -2.1126 H       
  35 H35            3.0905     2.1482    -1.1383 H       
  36 H36            1.6127     1.9568    -2.1129 H       
  37 H37            1.0750     3.2573    -0.1088 H       
  38 H38            1.7919     2.0030     0.9352 H       
  39 H39            3.7374     0.1923     0.2762 H       
  40 H40            0.1517    -2.3771    -1.1737 H       
  41 H41            3.2120    -1.4147    -2.1833 H       
  42 H42            2.6439    -0.0637    -3.1934 H       
  43 H43            3.9502    -1.3894    -4.1315 H       
  44 H44            5.5471    -2.0181    -5.8683 H       
  45 H45            7.3345    -1.8561    -7.5713 H       
  46 H46            9.0154    -1.3214    -7.8096 H       
  47 H47            8.5499    -3.4836    -5.6987 H       
  48 H48            8.6498    -5.2566    -7.5099 H       
  49 H49            8.5586    -3.9427    -8.8010 H       
  50 H50           10.7012    -2.9184    -7.9098 H       
  51 H51           10.7924    -4.2322    -6.6188 H       
  52 H52           -2.7000     4.0076     2.1759 H       
  53 H53           -4.2329     4.2105     1.2943 H       
  54 H54           -3.4005     2.6372     1.2818 H       
  55 H55           -1.7370     5.9545    -0.8473 H       
  56 H56           -3.2615     6.1477     0.0510 H       
  57 H57           -1.7286     5.9448     0.9326 H       
  58 H58           -3.4124     2.6508    -1.2166 H       
  59 H59           -4.2448     4.2241    -1.2041 H       
  60 H60           -2.7203     4.0309    -2.1024 H       
@<TRIPOS>BOND
   1    1    2 1
   2    1    6 1
   3    1    7 am
   4    2    3 1
   5    2   32 1
   6    2   33 1
   7    3    4 1
   8    3   11 1
   9    3   34 1
  10    4    5 1
  11    4   10 1
  12    4   12 1
  13    5    6 1
  14    5   35 1
  15    5   36 1
  16    6   37 1
  17    6   38 1
  18    7    8 2
  19    7    9 1
  20    9   28 1
  21   10   39 1
  22   11   40 1
  23   12   13 1
  24   12   41 1
  25   12   42 1
  26   13   20 1
  27   14   15 1
  28   14   18 1
  29   14   23 1
  30   15   16 2
  31   16   17 1
  32   17   18 ar
  33   17   19 ar
  34   18   22 ar
  35   19   20 ar
  36   19   27 1
  37   20   21 ar
  38   21   22 ar
  39   21   43 1
  40   22   44 1
  41   23   24 1
  42   23   45 1
  43   23   46 1
  44   24   25 1
  45   24   26 1
  46   24   47 1
  47   25   26 1
  48   25   48 1
  49   25   49 1
  50   26   50 1
  51   26   51 1
  52   28   29 1
  53   28   31 1
  54   28   30 1
  55   29   52 1
  56   29   53 1
  57   29   54 1
  58   30   55 1
  59   30   56 1
  60   30   57 1
  61   31   58 1
  62   31   59 1
  63   31   60 1

#	End of record

