#	Name: ASD04590102
#	Creating user name:	WinNT
#	Creation time:	15. 06. 2019 20:50

#	Modifying user name:	WinNT
#	Modification time:	15. 06. 2019 20:50

#	Program:	/corina/corina34_cracker 3.40 0067  02.08.2006

@<TRIPOS>MOLECULE
ASD04590102
  46   47    0    0    0
SMALL
NO_CHARGES


@<TRIPOS>ATOM
   1 C1            -0.0144     1.2099     0.0087 C.2     
   2 O2             0.0021    -0.0041     0.0020 O.2     
   3 N3             2.6243     3.5987    -0.0029 N.pl3   
   4 N4             1.3807     3.2779     0.0069 N.2     
   5 C5             1.2484     1.9621     0.0007 C.2     
   6 C6             2.5602     1.4133    -0.0148 C.2     
   7 C7             3.3987     2.4826    -0.0166 C.2     
   8 C8            -1.3172     1.9387     0.0188 C.2     
   9 O9            -1.3337     3.1522     0.0255 O.2     
  10 N10           -2.4752     1.2490     0.0206 N.am    
  11 N11           -6.5068     2.1111     0.8893 N.3     
  12 C12           -6.1859     1.8041    -0.5104 C.3     
  13 C13           -4.8417     1.0758    -0.5791 C.3     
  14 C14           -3.7537     1.9642     0.0305 C.3     
  15 C15           -4.1359     2.3090     1.4726 C.3     
  16 C16           -5.5006     3.0016     1.4818 C.3     
  17 N17            2.9134     0.0569    -0.0258 N.am    
  18 C18            4.2127    -0.3010    -0.0401 C.2     
  19 C19            4.5848    -1.7300    -0.0518 C.ar    
  20 C20            4.7731    -2.4165     1.1509 C.ar    
  21 C21            5.1206    -3.7529     1.1318 C.ar    
  22 C22            5.2822    -4.4120    -0.0736 C.ar    
  23 C23            5.0980    -3.7392    -1.2682 C.ar    
  24 C24            4.7447    -2.4042    -1.2654 C.ar    
  25 O25            5.0785     0.5527    -0.0434 O.2     
  26 Cl26           4.5064    -1.5639    -2.7657 Cl      
  27 Cl27           4.5714    -1.5913     2.6648 Cl      
  28 H28            2.9622     4.5080    -0.0046 H       
  29 H29            4.4782     2.4512    -0.0272 H       
  30 H30           -2.4620     0.2791     0.0152 H       
  31 H31           -7.4317     2.5063     0.9700 H       
  32 H32           -6.9653     1.1685    -0.9307 H       
  33 H33           -6.1264     2.7309    -1.0810 H       
  34 H34           -4.9047     0.1422    -0.0201 H       
  35 H35           -4.5964     0.8620    -1.6193 H       
  36 H36           -3.6629     2.8808    -0.5523 H       
  37 H37           -4.1878     1.3948     2.0638 H       
  38 H38           -3.3864     2.9762     1.8981 H       
  39 H39           -5.4443     3.9227     0.9018 H       
  40 H40           -5.7822     3.2356     2.5084 H       
  41 H41            2.2227    -0.6242    -0.0232 H       
  42 H42            5.2668    -4.2847     2.0603 H       
  43 H43            5.5540    -5.4572    -0.0821 H       
  44 H44            5.2266    -4.2604    -2.2053 H       
  45 Cl45          10.5540     9.5080     7.6648 Cl      
  46 H46           10.5540    10.8780     7.6648 H       
@<TRIPOS>BOND
   1    1    2 2
   2    1    5 1
   3    1    8 1
   4    3    4 1
   5    3    7 1
   6    3   28 1
   7    4    5 2
   8    5    6 1
   9    6    7 2
  10    6   17 1
  11    7   29 1
  12    8    9 2
  13    8   10 am
  14   10   14 1
  15   10   30 1
  16   11   12 1
  17   11   16 1
  18   11   31 1
  19   12   13 1
  20   12   32 1
  21   12   33 1
  22   13   14 1
  23   13   34 1
  24   13   35 1
  25   14   15 1
  26   14   36 1
  27   15   16 1
  28   15   37 1
  29   15   38 1
  30   16   39 1
  31   16   40 1
  32   17   18 am
  33   17   41 1
  34   18   19 1
  35   18   25 2
  36   19   20 ar
  37   19   24 ar
  38   20   21 ar
  39   20   27 1
  40   21   22 ar
  41   21   42 1
  42   22   23 ar
  43   22   43 1
  44   23   24 ar
  45   23   44 1
  46   24   26 1
  47   45   46 1

#	End of record

