#	Name: ASD02030512
#	Creating user name:	WinNT
#	Creation time:	15. 06. 2019 20:15

#	Modifying user name:	WinNT
#	Modification time:	15. 06. 2019 20:15

#	Program:	/corina/corina34_cracker 3.40 0067  02.08.2006

@<TRIPOS>MOLECULE
ASD02030512
  64   69    0    0    0
SMALL
NO_CHARGES


@<TRIPOS>ATOM
   1 N1            -0.0743     1.2869     0.3566 N.am    
   2 C2            -0.2826    -0.1678     0.3760 C.3     
   3 C3            -1.3247    -0.4994     1.4513 C.3     
   4 N4            -2.4874     0.3801     1.2654 N.am    
   5 C5            -2.2792     1.8348     1.2460 C.3     
   6 C6            -1.2378     2.1666     0.1763 C.3     
   7 C7             1.1607     1.8051     0.5070 C.2     
   8 C8             2.3014     0.9183     0.8198 C.2     
   9 N9             3.5249     1.3048     1.1105 N.2     
  10 N10            2.2698    -0.4263     0.8631 N.2     
  11 C11            3.4739    -0.8338     1.1741 C.2     
  12 N12            4.2480     0.2603     1.3258 N.pl3   
  13 O13            1.3366     3.0018     0.3854 O.2     
  14 C14           -3.7224    -0.1381     1.1151 C.2     
  15 C15           -3.9040    -1.6031     1.0289 C.2     
  16 O16           -4.6870     0.5987     1.0503 O.2     
  17 C17           -0.8054     3.6275     0.3163 C.3     
  18 C18           -1.8366     1.9355    -1.2125 C.3     
  19 C19            5.6089     0.2609     1.6605 C.ar    
  20 C20            6.2934     1.4619     1.7864 C.ar    
  21 C21            7.6358     1.4591     2.1172 C.ar    
  22 C22            8.2963     0.2605     2.3221 C.ar    
  23 C23            7.6161    -0.9369     2.1971 C.ar    
  24 C24            6.2737    -0.9398     1.8725 C.ar    
  25 Cl25           8.4935     2.9602     2.2751 Cl      
  26 N26           -2.9578    -2.5106     1.2104 N.2     
  27 N27           -3.5177    -3.7824     1.0464 N.pl3   
  28 C28           -4.8497    -3.6238     0.7559 C.2     
  29 C29           -5.1062    -2.2616     0.7478 C.2     
  30 C30           -2.9844    -5.0475     1.1246 C.2     
  31 C31           -3.8020    -6.1240     0.9091 C.2     
  32 C32           -5.1526    -5.9105     0.6162 C.2     
  33 N33           -5.6340    -4.6911     0.5484 N.2     
  34 C34           -1.5533    -5.2414     1.4355 C.ar    
  35 C35           -0.6995    -5.8055     0.4854 C.ar    
  36 C36            0.6358    -5.9838     0.7824 C.ar    
  37 C37            1.1294    -5.6055     2.0184 C.ar    
  38 C38            0.2889    -5.0460     2.9645 C.ar    
  39 C39           -1.0472    -4.8563     2.6786 C.ar    
  40 H40           -0.6436    -0.4987    -0.5977 H       
  41 H41            0.6568    -0.6687     0.6102 H       
  42 H42           -1.6337    -1.5400     1.3527 H       
  43 H43           -0.8957    -0.3346     2.4397 H       
  44 H44           -3.2185     2.3357     1.0118 H       
  45 H45           -1.9181     2.1657     2.2198 H       
  46 H46            3.7897    -1.8600     1.2911 H       
  47 H47           -0.2733     3.7603     1.2583 H       
  48 H48           -0.1489     3.8931    -0.5124 H       
  49 H49           -1.6858     4.2699     0.3026 H       
  50 H50           -2.7078     2.5773    -1.3439 H       
  51 H51           -1.0926     2.1725    -1.9730 H       
  52 H52           -2.1361     0.8919    -1.3100 H       
  53 H53            5.7781     2.3974     1.6258 H       
  54 H54            9.3451     0.2603     2.5798 H       
  55 H55            8.1342    -1.8708     2.3573 H       
  56 H56            5.7433    -1.8756     1.7755 H       
  57 H57           -6.0597    -1.7932     0.5532 H       
  58 H58           -3.4079    -7.1280     0.9644 H       
  59 H59           -5.8042    -6.7546     0.4450 H       
  60 H60           -1.0836    -6.1018    -0.4794 H       
  61 H61            1.2973    -6.4199     0.0485 H       
  62 H62            2.1755    -5.7480     2.2460 H       
  63 H63            0.6806    -4.7533     3.9274 H       
  64 H64           -1.7022    -4.4194     3.4178 H       
@<TRIPOS>BOND
   1    1    2 1
   2    1    7 am
   3    1    6 1
   4    2    3 1
   5    2   40 1
   6    2   41 1
   7    3    4 1
   8    3   42 1
   9    3   43 1
  10    4    5 1
  11    4   14 am
  12    5    6 1
  13    5   44 1
  14    5   45 1
  15    6   17 1
  16    6   18 1
  17    7    8 1
  18    7   13 2
  19    8    9 2
  20    8   10 1
  21    9   12 1
  22   10   11 2
  23   11   12 1
  24   11   46 1
  25   12   19 1
  26   14   15 1
  27   14   16 2
  28   15   26 2
  29   15   29 1
  30   17   47 1
  31   17   48 1
  32   17   49 1
  33   18   50 1
  34   18   51 1
  35   18   52 1
  36   19   20 ar
  37   19   24 ar
  38   20   21 ar
  39   20   53 1
  40   21   22 ar
  41   21   25 1
  42   22   23 ar
  43   22   54 1
  44   23   24 ar
  45   23   55 1
  46   24   56 1
  47   26   27 1
  48   27   28 1
  49   27   30 1
  50   28   29 2
  51   28   33 1
  52   29   57 1
  53   30   31 2
  54   30   34 1
  55   31   32 1
  56   31   58 1
  57   32   33 2
  58   32   59 1
  59   34   35 ar
  60   34   39 ar
  61   35   36 ar
  62   35   60 1
  63   36   37 ar
  64   36   61 1
  65   37   38 ar
  66   37   62 1
  67   38   39 ar
  68   38   63 1
  69   39   64 1

#	End of record

