#	Name: ASD01813917
#	Creating user name:	WinNT
#	Creation time:	15. 06. 2019 19:31

#	Modifying user name:	WinNT
#	Modification time:	15. 06. 2019 19:31

#	Program:	/corina/corina34_cracker 3.40 0067  02.08.2006

@<TRIPOS>MOLECULE
ASD01813917
  60   64    0    0    0
SMALL
NO_CHARGES


@<TRIPOS>ATOM
   1 C1            -0.0144     1.2116     0.0087 C.2     
   2 C2           -12.3792     4.8947     5.9900 C.2     
   3 C3           -11.8744     5.8029     5.0497 C.2     
   4 C4           -11.5766     5.3700     3.7907 C.2     
   5 C5           -11.7814     4.0206     3.4581 C.2     
   6 N6           -12.2760     3.1555     4.3960 N.am    
   7 C7           -12.5694     3.5995     5.6513 C.2     
   8 C8           -11.4759     3.5731     2.1650 C.2     
   9 C9           -11.6712     2.2643     1.8315 C.2     
  10 C10          -12.1798     1.3776     2.7986 C.2     
  11 C11          -12.4778     1.8580     4.0901 C.2     
  12 O12          -12.9185     1.0965     4.9345 O.2     
  13 C13          -12.3990    -0.0318     2.4659 C.2     
  14 O14          -12.8868    -0.8767     3.3975 O.3     
  15 O15          -12.1412    -0.4404     1.3496 O.2     
  16 C16          -10.9320     4.5378     1.1430 C.3     
  17 N17           -9.4647     4.4675     1.1353 N.3     
  18 C18           -8.9077     5.2118    -0.0028 C.3     
  19 C19           -7.3792     5.1810     0.0698 C.3     
  20 N20           -6.9190     3.7854     0.0586 N.3     
  21 C21           -7.4760     3.0410     1.1968 C.3     
  22 C22           -9.0045     3.0719     1.1241 C.3     
  23 C23           -5.5214     3.7184     0.0513 C.ar    
  24 C24           -4.8901     2.4890     0.0404 C.ar    
  25 C25           -3.4939     2.4316     0.0327 C.ar    
  26 C26           -2.7375     3.6181     0.0361 C.ar    
  27 C27           -3.3926     4.8444     0.0463 C.ar    
  28 C28           -4.7686     4.8922     0.0493 C.ar    
  29 C29           -2.5208     1.3402     0.0213 C.2     
  30 C30           -1.2956     1.9283     0.0187 C.2     
  31 O31           -1.4347     3.2705     0.0274 O.3     
  32 O32            0.0021    -0.0041     0.0020 O.2     
  33 O33            1.1442     1.9017     0.0013 O.3     
  34 C34            3.5731     2.0760    -0.0209 C.3     
  35 C35            2.3725     1.1276    -0.0145 C.3     
  36 H36          -12.6130     5.2294     6.9899 H       
  37 H37          -11.7226     6.8376     5.3195 H       
  38 H38          -11.1872     6.0590     3.0558 H       
  39 H39          -12.9593     2.9083     6.3839 H       
  40 H40          -11.4385     1.9133     0.8369 H       
  41 H41          -13.0146    -1.7975     3.1312 H       
  42 H42          -11.3135     4.2751     0.1563 H       
  43 H43          -11.2459     5.5505     1.3961 H       
  44 H44           -9.2369     4.7516    -0.9345 H       
  45 H45           -9.2528     6.2451     0.0345 H       
  46 H46           -6.9637     5.7078    -0.7892 H       
  47 H47           -7.0490     5.6655     0.9886 H       
  48 H48           -7.1309     2.0078     1.1594 H       
  49 H49           -7.1468     3.5012     2.1284 H       
  50 H50           -9.4200     2.5450     1.9831 H       
  51 H51           -9.3347     2.5874     0.2053 H       
  52 H52           -5.4717     1.5790     0.0382 H       
  53 H53           -2.8212     5.7608     0.0490 H       
  54 H54           -5.2701     5.8487     0.0569 H       
  55 H55           -2.7328     0.2812     0.0160 H       
  56 H56            4.4951     1.4949    -0.0328 H       
  57 H57            3.5312     2.7092    -0.9071 H       
  58 H58            3.5482     2.6996     0.8727 H       
  59 H59            2.4144     0.4944     0.8717 H       
  60 H60            2.3974     0.5039    -0.9082 H       
@<TRIPOS>BOND
   1    1   32 2
   2    1   33 1
   3    1   30 1
   4    2    3 1
   5    2    7 2
   6    2   36 1
   7    3    4 2
   8    3   37 1
   9    4    5 1
  10    4   38 1
  11    5    6 1
  12    5    8 2
  13    6    7 1
  14    6   11 am
  15    7   39 1
  16    8    9 1
  17    8   16 1
  18    9   10 2
  19    9   40 1
  20   10   11 1
  21   10   13 1
  22   11   12 2
  23   13   14 1
  24   13   15 2
  25   14   41 1
  26   16   17 1
  27   16   42 1
  28   16   43 1
  29   17   18 1
  30   17   22 1
  31   18   19 1
  32   18   44 1
  33   18   45 1
  34   19   20 1
  35   19   46 1
  36   19   47 1
  37   20   21 1
  38   20   23 1
  39   21   22 1
  40   21   48 1
  41   21   49 1
  42   22   50 1
  43   22   51 1
  44   23   24 ar
  45   23   28 ar
  46   24   25 ar
  47   24   52 1
  48   25   26 ar
  49   25   29 1
  50   26   27 ar
  51   26   31 1
  52   27   28 ar
  53   27   53 1
  54   28   54 1
  55   29   30 2
  56   29   55 1
  57   30   31 1
  58   33   35 1
  59   34   35 1
  60   34   56 1
  61   34   57 1
  62   34   58 1
  63   35   59 1
  64   35   60 1

#	End of record

