#	Name: ASD01420011
#	Creating user name:	WinNT
#	Creation time:	15. 06. 2019 19:20

#	Modifying user name:	WinNT
#	Modification time:	15. 06. 2019 19:20

#	Program:	/corina/corina34_cracker 3.40 0067  02.08.2006

@<TRIPOS>MOLECULE
ASD01420011
  47   49    0    0    0
SMALL
NO_CHARGES


@<TRIPOS>ATOM
   1 C1            -0.0169     1.3967     0.0097 C.ar    
   2 C2             0.0021    -0.0041     0.0020 C.ar    
   3 C3             1.2121    -0.6753    -0.0131 C.ar    
   4 C4             2.4019     0.0382    -0.0207 C.ar    
   5 C5             2.3847     1.4271    -0.0126 C.ar    
   6 C6             1.1846     2.1058     0.0021 C.ar    
   7 C7            -1.3044     2.1203     0.0198 C.2     
   8 C8            -2.0335     2.1921    -1.0860 C.2     
   9 C9            -1.7897     2.7771     1.2863 C.3     
  10 O10            3.5882    -0.6239    -0.0356 O.3     
  11 C11            4.7752     0.1718    -0.0426 C.3     
  12 C12            5.9834    -0.7288    -0.0590 C.ar    
  13 C13            6.5261    -1.1353    -1.2636 C.ar    
  14 C14            7.6344    -1.9614    -1.2786 C.ar    
  15 C15            8.2003    -2.3805    -0.0890 C.ar    
  16 C16            7.6581    -1.9732     1.1156 C.ar    
  17 C17            6.5524    -1.1436     1.1306 C.ar    
  18 O18           -1.1636    -0.7012     0.0099 O.3     
  19 C19           -1.0670    -2.1269     0.0012 C.3     
  20 C20           -2.4505    -2.7242     0.0118 C.ar    
  21 C21           -3.0969    -2.9918    -1.1805 C.ar    
  22 C22           -4.3660    -3.5397    -1.1708 C.ar    
  23 C23           -4.9885    -3.8204     0.0311 C.ar    
  24 C24           -4.3417    -3.5537     1.2233 C.ar    
  25 C25           -3.0709    -3.0099     1.2136 C.ar    
  26 H26            1.2302    -1.7551    -0.0188 H       
  27 H27            3.3141     1.9771    -0.0178 H       
  28 H28            1.1746     3.1857     0.0076 H       
  29 H29           -2.9750     2.7212    -1.0787 H       
  30 H30           -1.6857     1.7214    -1.9937 H       
  31 H31           -1.0634     2.6126     2.0822 H       
  32 H32           -1.9083     3.8475     1.1181 H       
  33 H33           -2.7485     2.3462     1.5746 H       
  34 H34            4.7824     0.8056    -0.9293 H       
  35 H35            4.7994     0.7961     0.8505 H       
  36 H36            6.0841    -0.8079    -2.1930 H       
  37 H37            8.0580    -2.2796    -2.2197 H       
  38 H38            9.0657    -3.0265    -0.1008 H       
  39 H39            8.0999    -2.3009     2.0449 H       
  40 H40            6.1310    -0.8224     2.0717 H       
  41 H41           -0.5386    -2.4498    -0.8958 H       
  42 H42           -0.5209    -2.4594     0.8841 H       
  43 H43           -2.6106    -2.7724    -2.1195 H       
  44 H44           -4.8713    -3.7480    -2.1023 H       
  45 H45           -5.9803    -4.2478     0.0387 H       
  46 H46           -4.8282    -3.7728     2.1624 H       
  47 H47           -2.5641    -2.8049     2.1450 H       
@<TRIPOS>BOND
   1    1    2 ar
   2    1    6 ar
   3    1    7 1
   4    2    3 ar
   5    2   18 1
   6    3    4 ar
   7    3   26 1
   8    4    5 ar
   9    4   10 1
  10    5    6 ar
  11    5   27 1
  12    6   28 1
  13    7    8 2
  14    7    9 1
  15    8   29 1
  16    8   30 1
  17    9   31 1
  18    9   32 1
  19    9   33 1
  20   10   11 1
  21   11   12 1
  22   11   34 1
  23   11   35 1
  24   12   13 ar
  25   12   17 ar
  26   13   14 ar
  27   13   36 1
  28   14   15 ar
  29   14   37 1
  30   15   16 ar
  31   15   38 1
  32   16   17 ar
  33   16   39 1
  34   17   40 1
  35   18   19 1
  36   19   20 1
  37   19   41 1
  38   19   42 1
  39   20   21 ar
  40   20   25 ar
  41   21   22 ar
  42   21   43 1
  43   22   23 ar
  44   22   44 1
  45   23   24 ar
  46   23   45 1
  47   24   25 ar
  48   24   46 1
  49   25   47 1

#	End of record

