#	Name: ASD01810203
#	Creating user name:	WinNT
#	Creation time:	15. 06. 2019 19:24

#	Modifying user name:	WinNT
#	Modification time:	15. 06. 2019 19:24

#	Program:	/corina/corina34_cracker 3.40 0067  02.08.2006

@<TRIPOS>MOLECULE
ASD01810203
  52   55    0    0    0
SMALL
NO_CHARGES


@<TRIPOS>ATOM
   1 C1             0.1038     1.4772     0.3903 C.ar    
   2 C2             0.0850     0.0900     0.3822 C.ar    
   3 C3             1.2535    -0.6295     0.2402 C.ar    
   4 C4             2.4697     0.0389     0.1030 C.ar    
   5 C5             2.4841     1.4435     0.1117 C.ar    
   6 C6             1.2942     2.1571     0.2562 C.ar    
   7 N7             3.6451    -0.6678    -0.0386 N.pl3   
   8 C8             4.8373    -0.0734    -0.1722 C.2     
   9 C9             4.9780     1.2999    -0.1779 C.2     
  10 C10            3.7769     2.1382    -0.0343 C.2     
  11 O11            3.8479     3.3547    -0.0335 O.2     
  12 C12            6.3049     1.9144    -0.3259 C.2     
  13 O13            6.4293     3.2567    -0.3300 O.3     
  14 O14            7.2901     1.2123    -0.4446 O.2     
  15 C15            3.5871    -2.1316    -0.0427 C.3     
  16 C16            3.4445    -2.6248    -1.4595 C.ar    
  17 C17            4.5665    -2.7659    -2.2562 C.ar    
  18 C18            4.4418    -3.2176    -3.5544 C.ar    
  19 C19            3.1828    -3.5316    -4.0621 C.ar    
  20 C20            2.0560    -3.3875    -3.2552 C.ar    
  21 C21            2.1929    -2.9400    -1.9568 C.ar    
  22 C22            3.0424    -4.0172    -5.4574 C.ar    
  23 C23            4.1698    -4.1606    -6.2638 C.ar    
  24 C24            4.0378    -4.6121    -7.5621 C.ar    
  25 C25            2.7896    -4.9232    -8.0663 C.ar    
  26 C26            1.6595    -4.7836    -7.2689 C.ar    
  27 C27            1.7846    -4.3362    -5.9622 C.ar    
  28 F28            1.2196    -1.9801     0.2346 F       
  29 N29            0.3990    -5.0985    -7.7820 N.pl3   
  30 C30            0.2678    -5.5759    -9.1608 C.3     
  31 C31           -0.7917    -4.9513    -6.9414 C.3     
  32 H32           -0.8197     2.0266     0.4978 H       
  33 H33           -0.8544    -0.4322     0.4885 H       
  34 H34            1.3062     3.2370     0.2624 H       
  35 H35            5.7184    -0.6889    -0.2786 H       
  36 H36            7.3221     3.6146    -0.4300 H       
  37 H37            4.5030    -2.5328     0.3913 H       
  38 H38            2.7311    -2.4629     0.5452 H       
  39 H39            5.5418    -2.5219    -1.8617 H       
  40 H40            5.3184    -3.3272    -4.1756 H       
  41 H41            1.0778    -3.6291    -3.6439 H       
  42 H42            1.3202    -2.8283    -1.3304 H       
  43 H43            5.1472    -3.9182    -5.8734 H       
  44 H44            4.9129    -4.7222    -8.1855 H       
  45 H45            2.6916    -5.2752    -9.0825 H       
  46 H46            0.9080    -4.2270    -5.3408 H       
  47 H47            0.3450    -6.6631    -9.1778 H       
  48 H48           -0.7009    -5.2742    -9.5592 H       
  49 H49            1.0617    -5.1457    -9.7714 H       
  50 H50           -1.1968    -3.9461    -7.0579 H       
  51 H51           -1.5419    -5.6825    -7.2428 H       
  52 H52           -0.5225    -5.1159    -5.8981 H       
@<TRIPOS>BOND
   1    1    2 ar
   2    1    6 ar
   3    1   32 1
   4    2    3 ar
   5    2   33 1
   6    3    4 ar
   7    3   28 1
   8    4    5 ar
   9    4    7 1
  10    5    6 ar
  11    5   10 1
  12    6   34 1
  13    7    8 1
  14    7   15 1
  15    8    9 2
  16    8   35 1
  17    9   10 1
  18    9   12 1
  19   10   11 2
  20   12   13 1
  21   12   14 2
  22   13   36 1
  23   15   16 1
  24   15   37 1
  25   15   38 1
  26   16   17 ar
  27   16   21 ar
  28   17   18 ar
  29   17   39 1
  30   18   19 ar
  31   18   40 1
  32   19   20 ar
  33   19   22 1
  34   20   21 ar
  35   20   41 1
  36   21   42 1
  37   22   23 ar
  38   22   27 ar
  39   23   24 ar
  40   23   43 1
  41   24   25 ar
  42   24   44 1
  43   25   26 ar
  44   25   45 1
  45   26   27 ar
  46   26   29 1
  47   27   46 1
  48   29   30 1
  49   29   31 1
  50   30   47 1
  51   30   48 1
  52   30   49 1
  53   31   50 1
  54   31   51 1
  55   31   52 1

#	End of record

