#	Name: ASD01840375
#	Creating user name:	WinNT
#	Creation time:	15. 06. 2019 19:37

#	Modifying user name:	WinNT
#	Modification time:	15. 06. 2019 19:37

#	Program:	/corina/corina34_cracker 3.40 0067  02.08.2006

@<TRIPOS>MOLECULE
ASD01840375
  52   55    0    0    0
SMALL
NO_CHARGES


@<TRIPOS>ATOM
   1 C1             0.2611     1.7552    -0.9980 C.ar    
   2 C2             0.3841     0.5320    -1.6195 C.ar    
   3 N3             1.4990    -0.1677    -1.4965 N.ar    
   4 N4             2.4999     0.2427    -0.8111 N.ar    
   5 C5             1.3546     2.2267    -0.2364 C.ar    
   6 C6             1.5104     3.4570     0.5171 C.2     
   7 C7             2.4928     1.4121    -0.1670 C.ar    
   8 S8             3.7250     2.1824     0.8223 S.3     
   9 C9             2.7118     3.5783     1.1344 C.2     
  10 C10           -0.9999     2.5697    -1.1313 C.3     
  11 C11           -0.7562    -0.0106    -2.4419 C.3     
  12 N12            0.5179     4.4243     0.5985 N.pl3   
  13 C13            3.1102     4.7236     1.9514 C.2     
  14 O14            2.3404     5.6527     2.1138 O.2     
  15 N15            4.3297     4.7507     2.5248 N.am    
  16 C16            5.0757     5.6831     3.3831 C.3     
  17 C17            5.4973     3.8578     2.5728 C.3     
  18 C18            6.3699     5.1042     2.7947 C.3     
  19 N19            6.8146     5.7588     1.5618 N.am    
  20 C20            8.1169     5.7308     1.2159 C.2     
  21 O21            8.9207     5.1637     1.9253 O.2     
  22 C22            8.5744     6.4041    -0.0523 C.3     
  23 C23           10.0859     6.2252    -0.2081 C.3     
  24 C24           10.5503     6.9088    -1.4957 C.3     
  25 C25            9.8361     6.2794    -2.6935 C.3     
  26 C26            8.3246     6.4583    -2.5377 C.3     
  27 C27            7.8602     5.7747    -1.2501 C.3     
  28 H28           -1.6441     2.3852    -0.2716 H       
  29 H29           -0.7456     3.6287    -1.1742 H       
  30 H30           -1.5220     2.2841    -2.0445 H       
  31 H31           -0.6493     0.3210    -3.4747 H       
  32 H32           -0.7433    -1.1000    -2.4068 H       
  33 H33           -1.7008     0.3547    -2.0389 H       
  34 H34           -0.4028     4.1923     0.4002 H       
  35 H35            0.7452     5.3322     0.8537 H       
  36 H36            4.9141     6.7308     3.1292 H       
  37 H37            4.9558     5.4836     4.4479 H       
  38 H38            5.4885     3.1771     3.4240 H       
  39 H39            5.6948     3.3503     1.6286 H       
  40 H40            7.1685     4.9642     3.5231 H       
  41 H41            6.1717     6.2124     0.9944 H       
  42 H42            8.3372     7.4669    -0.0053 H       
  43 H43           10.5947     6.6736     0.6452 H       
  44 H44           10.3230     5.1624    -0.2551 H       
  45 H45           10.3131     7.9717    -1.4487 H       
  46 H46           11.6271     6.7814    -1.6067 H       
  47 H47           10.1670     6.7664    -3.6108 H       
  48 H48           10.0733     5.2166    -2.7405 H       
  49 H49            8.0875     7.5211    -2.4907 H       
  50 H50            7.8159     6.0099    -3.3910 H       
  51 H51            8.0974     4.7118    -1.2971 H       
  52 H52            6.7834     5.9021    -1.1391 H       
@<TRIPOS>BOND
   1    1    2 ar
   2    1    5 ar
   3    1   10 1
   4    2   11 1
   5    2    3 ar
   6    3    4 ar
   7    4    7 ar
   8    5    7 ar
   9    5    6 1
  10    6    9 2
  11    6   12 1
  12    7    8 1
  13    8    9 1
  14    9   13 1
  15   10   28 1
  16   10   29 1
  17   10   30 1
  18   11   31 1
  19   11   32 1
  20   11   33 1
  21   12   34 1
  22   12   35 1
  23   13   14 2
  24   13   15 am
  25   15   16 1
  26   15   17 1
  27   16   18 1
  28   16   36 1
  29   16   37 1
  30   17   18 1
  31   17   38 1
  32   17   39 1
  33   18   19 1
  34   18   40 1
  35   19   20 am
  36   19   41 1
  37   20   21 2
  38   20   22 1
  39   22   23 1
  40   22   27 1
  41   22   42 1
  42   23   24 1
  43   23   43 1
  44   23   44 1
  45   24   25 1
  46   24   45 1
  47   24   46 1
  48   25   26 1
  49   25   47 1
  50   25   48 1
  51   26   27 1
  52   26   49 1
  53   26   50 1
  54   27   51 1
  55   27   52 1

#	End of record

