#	Name: ASD01940301
#	Creating user name:	WinNT
#	Creation time:	15. 06. 2019 20:12

#	Modifying user name:	WinNT
#	Modification time:	15. 06. 2019 20:12

#	Program:	/corina/corina34_cracker 3.40 0067  02.08.2006

@<TRIPOS>MOLECULE
ASD01940301
  51   52    0    0    0
SMALL
NO_CHARGES


@<TRIPOS>ATOM
   1 C1            -0.1218     1.3921     0.0178 C.ar    
   2 N2            -0.1868     0.0036     0.0547 N.pl3   
   3 C3            -1.3367    -0.6293     0.5330 C.ar    
   4 C4             0.2740     2.1104     1.1572 C.ar    
   5 C5             0.3355     3.5065     1.1080 C.ar    
   6 C6             0.0089     4.1690    -0.0534 C.ar    
   7 C7            -0.3827     3.4580    -1.1805 C.ar    
   8 C8            -0.4430     2.0758    -1.1493 C.ar    
   9 C9            -2.3630     0.1246     1.0890 C.ar    
  10 C10           -3.4992    -0.4969     1.5620 C.ar    
  11 C11           -3.6191    -1.8851     1.4824 C.ar    
  12 C12           -4.7986    -2.5325     1.9727 C.1     
  13 C13           -5.7655    -3.0632     2.3747 C.1     
  14 C14           -2.5869    -2.6417     0.9234 C.ar    
  15 C15           -1.4548    -2.0144     0.4465 C.ar    
  16 C16            0.0760     5.6737    -0.1023 C.3     
  17 N17            1.2657     6.0865    -0.8586 N.3     
  18 O18            1.3637     7.5446    -0.9269 O.3     
  19 C19            2.5016     8.0174    -1.6506 C.3     
  20 C20            2.5021     9.5474    -1.6573 C.3     
  21 O21            2.6754    10.0296    -0.3234 O.3     
  22 C22            0.6223     1.3972     2.3982 C.2     
  23 O23            0.5614     0.1832     2.4395 O.2     
  24 N24            1.0084     2.0899     3.4879 N.am    
  25 O25            1.3432     1.4043     4.6808 O.3     
  26 C26            1.7343     2.2626     5.7543 C.3     
  27 C27            2.0714     1.4187     6.9852 C.3     
  28 O28            3.2178     0.6114     6.7098 O.3     
  29 F29           -0.8189     1.3911    -2.2515 F       
  30 F30           -0.4578    -2.7442    -0.1000 F       
  31 F31           -0.7015     4.1190    -2.3148 F       
  32 H32            0.5662    -0.5254    -0.2517 H       
  33 H33            0.6390     4.0649     1.9812 H       
  34 H34           -2.2704     1.1988     1.1510 H       
  35 H35           -4.2960     0.0903     1.9942 H       
  36 H36           -6.6304    -3.5379     2.7342 H       
  37 H37           -2.6769    -3.7162     0.8606 H       
  38 H38           -0.8178     6.0616    -0.5909 H       
  39 H39            0.1355     6.0679     0.9122 H       
  40 H40            2.1029     5.6860    -0.4626 H       
  41 H41            3.4121     7.6559    -1.1727 H       
  42 H42            2.4587     7.6496    -2.6758 H       
  43 H43            3.3188     9.9077    -2.2829 H       
  44 H44            1.5536     9.9093    -2.0541 H       
  45 H45            2.6856    10.9939    -0.2519 H       
  46 H46            1.0570     3.0581     3.4551 H       
  47 H47            2.6106     2.8390     5.4579 H       
  48 H48            0.9161     2.9422     5.9927 H       
  49 H49            2.2836     2.0753     7.8289 H       
  50 H50            1.2248     0.7766     7.2284 H       
  51 H51            3.4892     0.0488     7.4479 H       
@<TRIPOS>BOND
   1    1    2 1
   2    1    4 ar
   3    1    8 ar
   4    2    3 1
   5    2   32 1
   6    3    9 ar
   7    3   15 ar
   8    4    5 ar
   9    4   22 1
  10    5    6 ar
  11    5   33 1
  12    6    7 ar
  13    6   16 1
  14    7    8 ar
  15    7   31 1
  16    8   29 1
  17    9   10 ar
  18    9   34 1
  19   10   11 ar
  20   10   35 1
  21   11   12 1
  22   11   14 ar
  23   12   13 3
  24   13   36 1
  25   14   15 ar
  26   14   37 1
  27   15   30 1
  28   16   17 1
  29   16   38 1
  30   16   39 1
  31   17   18 1
  32   17   40 1
  33   18   19 1
  34   19   20 1
  35   19   41 1
  36   19   42 1
  37   20   21 1
  38   20   43 1
  39   20   44 1
  40   21   45 1
  41   22   23 2
  42   22   24 am
  43   24   25 1
  44   24   46 1
  45   25   26 1
  46   26   27 1
  47   26   47 1
  48   26   48 1
  49   27   28 1
  50   27   49 1
  51   27   50 1
  52   28   51 1

#	End of record

