#	Name: ASD03730889
#	Creating user name:	WinNT
#	Creation time:	15. 06. 2019 20:44

#	Modifying user name:	WinNT
#	Modification time:	15. 06. 2019 20:44

#	Program:	/corina/corina34_cracker 3.40 0067  02.08.2006

@<TRIPOS>MOLECULE
ASD03730889
  59   65    0    0    0
SMALL
NO_CHARGES


@<TRIPOS>ATOM
   1 C1            -0.0183     1.4732     0.0189 C.2     
   2 C2             0.0010    -0.0045    -0.0105 C.ar    
   3 C3             1.2173    -0.6898    -0.0168 C.ar    
   4 C4             1.2283    -2.0688    -0.0444 C.ar    
   5 C5             0.0373    -2.7730    -0.0658 C.ar    
   6 C6            -1.1715    -2.1001    -0.0602 C.ar    
   7 C7            -1.1966    -0.7210    -0.0264 C.ar    
   8 O8             1.0264     2.0945     0.0377 O.2     
   9 N9            -1.1942     2.1319     0.0193 N.am    
  10 C10            2.5403    -2.8102    -0.0517 C.3     
  11 O11           -0.9946    -3.4155     6.1796 O.3     
  12 C12           -1.0574    -3.6911     7.5914 C.3     
  13 O13           -0.1556    -4.8002     7.7640 O.3     
  14 C14            0.7578    -4.6894     6.7549 C.ar    
  15 C15            0.2409    -3.8386     5.7805 C.ar    
  16 C16            2.0094    -5.2541     6.5867 C.ar    
  17 C17            2.7592    -4.9800     5.4468 C.ar    
  18 C18            2.2287    -4.1352     4.4766 C.ar    
  19 C19            0.9837    -3.5657     4.6442 C.ar    
  20 O20            4.0045    -5.4129     5.0975 O.3     
  21 C21            3.2474    -4.0588     3.3710 C.3     
  22 C22            4.1917    -5.2282     3.6811 C.3     
  23 N23            2.9575    -3.0781     1.3268 N.am    
  24 C24            2.6220    -4.1894     2.0121 C.2     
  25 C25            3.9711    -2.7452     3.3512 C.ar    
  26 C26            4.7294    -2.0627     4.2762 C.ar    
  27 C27            5.2811    -0.8364     3.9507 C.ar    
  28 C28            5.0685    -0.2976     2.6948 C.ar    
  29 C29            4.3089    -0.9768     1.7652 C.ar    
  30 C30            3.7501    -2.2121     2.0840 C.ar    
  31 O31            1.9476    -5.1137     1.6098 O.2     
  32 C32           -1.2149     3.5268     0.1326 C.ar    
  33 C33           -2.3323     4.1671     0.6587 C.ar    
  34 C34           -2.3483     5.5452     0.7692 C.ar    
  35 C35           -1.2553     6.2857     0.3570 C.ar    
  36 C36           -0.1441     5.6515    -0.1664 C.ar    
  37 C37           -0.1185     4.2741    -0.2742 C.ar    
  38 F38           -3.4002     3.4436     1.0604 F       
  39 H39            2.1476    -0.1414    -0.0005 H       
  40 H40            0.0514    -3.8527    -0.0873 H       
  41 H41           -2.0975    -2.6557    -0.0773 H       
  42 H42           -2.1410    -0.1970    -0.0172 H       
  43 H43           -2.0261     1.6392    -0.0590 H       
  44 H44            2.4217    -3.7533    -0.5852 H       
  45 H45            3.2974    -2.2040    -0.5492 H       
  46 H46           -0.7182    -2.8288     8.1654 H       
  47 H47           -2.0697    -3.9718     7.8821 H       
  48 H48            2.4073    -5.9121     7.3451 H       
  49 H49            0.5870    -2.9056     3.8871 H       
  50 H50            5.2248    -4.9610     3.4588 H       
  51 H51            3.8950    -6.1216     3.1316 H       
  52 H52            4.8939    -2.4853     5.2563 H       
  53 H53            5.8766    -0.3013     4.6755 H       
  54 H54            5.4991     0.6598     2.4408 H       
  55 H55            4.1470    -0.5494     0.7868 H       
  56 H56           -3.2150     6.0437     1.1774 H       
  57 H57           -1.2701     7.3621     0.4440 H       
  58 H58            0.7072     6.2333    -0.4878 H       
  59 H59            0.7522     3.7798    -0.6792 H       
@<TRIPOS>BOND
   1    1    2 1
   2    1    8 2
   3    1    9 am
   4    2    3 ar
   5    2    7 ar
   6    3    4 ar
   7    3   39 1
   8    4    5 ar
   9    4   10 1
  10    5    6 ar
  11    5   40 1
  12    6    7 ar
  13    6   41 1
  14    7   42 1
  15    9   32 1
  16    9   43 1
  17   10   23 1
  18   10   44 1
  19   10   45 1
  20   11   12 1
  21   11   15 1
  22   12   13 1
  23   12   46 1
  24   12   47 1
  25   13   14 1
  26   14   15 ar
  27   14   16 ar
  28   15   19 ar
  29   16   17 ar
  30   16   48 1
  31   17   18 ar
  32   17   20 1
  33   18   19 ar
  34   18   21 1
  35   19   49 1
  36   20   22 1
  37   21   22 1
  38   21   24 1
  39   21   25 1
  40   22   50 1
  41   22   51 1
  42   23   24 am
  43   23   30 1
  44   24   31 2
  45   25   26 ar
  46   25   30 ar
  47   26   27 ar
  48   26   52 1
  49   27   28 ar
  50   27   53 1
  51   28   29 ar
  52   28   54 1
  53   29   30 ar
  54   29   55 1
  55   32   33 ar
  56   32   37 ar
  57   33   34 ar
  58   33   38 1
  59   34   35 ar
  60   34   56 1
  61   35   36 ar
  62   35   57 1
  63   36   37 ar
  64   36   58 1
  65   37   59 1

#	End of record

