#	Name: ASD01140521
#	Creating user name:	WinNT
#	Creation time:	15. 06. 2019 19:01

#	Modifying user name:	WinNT
#	Modification time:	15. 06. 2019 19:01

#	Program:	/corina/corina34_cracker 3.40 0067  02.08.2006

@<TRIPOS>MOLECULE
ASD01140521
  47   50    0    0    0
SMALL
NO_CHARGES


@<TRIPOS>ATOM
   1 C1             0.0291     1.3119    -0.2251 C.2     
   2 N2             0.0649    -0.0003    -0.3102 N.2     
   3 N3             1.1702    -0.6526    -0.2924 N.2     
   4 C4             2.3418    -0.0642    -0.1886 C.2     
   5 C5             1.2399     2.0195    -0.1112 C.2     
   6 C6             1.5790     3.3564    -0.0045 C.2     
   7 N7             2.4160     1.3001    -0.0939 N.pl3   
   8 N8             3.4657     2.2125     0.0242 N.2     
   9 C9             2.9663     3.4323     0.0768 C.2     
  10 C10            3.5784    -0.8755    -0.1735 C.2     
  11 C11            3.6734    -2.2939    -0.2619 C.2     
  12 C12            5.0024    -2.5353    -0.2041 C.2     
  13 O13            5.6065    -1.3438    -0.0919 O.3     
  14 N14            4.8103    -0.4340    -0.0818 N.2     
  15 C15            5.6746    -3.8831    -0.2558 C.3     
  16 C16            0.6206     4.5191     0.0190 C.3     
  17 C17           -0.3311     4.3717     1.2078 C.3     
  18 C18            1.4063     5.8251     0.1535 C.3     
  19 C19           -0.1864     4.5411    -1.2807 C.3     
  20 O20            3.6894     4.5776     0.1912 O.3     
  21 C21            5.1104     4.4435     0.2607 C.3     
  22 C22            5.7383     5.8078     0.3842 C.2     
  23 N23            6.1220     6.5954    -0.6354 N.pl3   
  24 N24            5.9999     6.4349     1.5023 N.2     
  25 C25            6.5537     7.6176     1.2383 C.2     
  26 N26            6.6495     7.7617    -0.0574 N.2     
  27 C27            6.0122     6.2965    -2.0653 C.3     
  28 H28           -0.9140     1.8378    -0.2468 H       
  29 H29            2.8703    -3.0102    -0.3532 H       
  30 H30            5.8935    -4.1405    -1.2921 H       
  31 H31            6.6033    -3.8480     0.3138 H       
  32 H32            5.0133    -4.6357     0.1736 H       
  33 H33            0.2438     4.3561     2.1337 H       
  34 H34           -1.0243     5.2127     1.2248 H       
  35 H35           -0.8909     3.4414     1.1119 H       
  36 H36            2.0843     5.9301    -0.6934 H       
  37 H37            0.7131     6.6661     0.1705 H       
  38 H38            1.9813     5.8094     1.0794 H       
  39 H39           -0.6878     3.5824    -1.4133 H       
  40 H40           -0.9302     5.3366    -1.2332 H       
  41 H41            0.4837     4.7201    -2.1215 H       
  42 H42            5.3764     3.8411     1.1293 H       
  43 H43            5.4741     3.9567    -0.6442 H       
  44 H44            6.8696     8.3412     1.9752 H       
  45 H45            5.0520     6.6530    -2.4384 H       
  46 H46            6.8187     6.7944    -2.6036 H       
  47 H47            6.0841     5.2196    -2.2179 H       
@<TRIPOS>BOND
   1    1    2 2
   2    1    5 1
   3    1   28 1
   4    2    3 1
   5    3    4 2
   6    4    7 1
   7    4   10 1
   8    5    7 1
   9    5    6 2
  10    6    9 1
  11    6   16 1
  12    7    8 1
  13    8    9 2
  14    9   20 1
  15   10   11 1
  16   10   14 2
  17   11   12 2
  18   11   29 1
  19   12   13 1
  20   12   15 1
  21   13   14 1
  22   15   30 1
  23   15   31 1
  24   15   32 1
  25   16   17 1
  26   16   18 1
  27   16   19 1
  28   17   33 1
  29   17   34 1
  30   17   35 1
  31   18   36 1
  32   18   37 1
  33   18   38 1
  34   19   39 1
  35   19   40 1
  36   19   41 1
  37   20   21 1
  38   21   22 1
  39   21   42 1
  40   21   43 1
  41   22   24 2
  42   22   23 1
  43   23   26 1
  44   23   27 1
  45   24   25 1
  46   25   26 2
  47   25   44 1
  48   27   45 1
  49   27   46 1
  50   27   47 1

#	End of record

