#	Name: ASD00360013
#	Creating user name:	WinNT
#	Creation time:	15. 06. 2019 18:35

#	Modifying user name:	WinNT
#	Modification time:	15. 06. 2019 18:35

#	Program:	/corina/corina34_cracker 3.40 0067  02.08.2006

@<TRIPOS>MOLECULE
ASD00360013
  44   47    0    0    0
SMALL
NO_CHARGES


@<TRIPOS>ATOM
   1 C1            -0.0169     1.3973     0.0097 C.ar    
   2 C2             0.0021    -0.0041     0.0020 C.ar    
   3 C3             1.2204    -0.6877    -0.0139 C.ar    
   4 C4             2.4191     0.0150    -0.0217 C.ar    
   5 C5             2.4124     1.4048    -0.0134 C.ar    
   6 C6             1.1874     2.1045     0.0020 C.ar    
   7 C7             1.1880     3.5783     0.0104 C.2     
   8 C8             3.6836     2.1591    -0.0190 C.2     
   9 C9             3.6659     3.6035     0.2979 C.ar    
  10 C10            2.4407     4.2982     0.3112 C.ar    
  11 C11            2.4232     5.6620     0.6103 C.ar    
  12 C12            4.8460     4.2801     0.5819 C.ar    
  13 C13            4.8138     5.6341     0.8770 C.ar    
  14 C14            3.6173     6.3207     0.8922 C.ar    
  15 O15            1.2331    -2.0446    -0.0212 O.3     
  16 O16            4.7303     1.5992    -0.2805 O.2     
  17 O17            0.1670     4.1947    -0.2286 O.2     
  18 O18            1.2498     6.3415     0.6258 O.3     
  19 O19           -1.1975     2.0626     0.0189 O.3     
  20 C20            6.0969     6.3622     1.1847 C.3     
  21 C21           -1.2711    -0.7613     0.0112 C.ar    
  22 C22           -3.3302    -1.3809    -1.0616 C.ar    
  23 C23           -3.6559    -2.1751     0.0225 C.ar    
  24 C24           -2.7950    -2.2629     1.1080 C.ar    
  25 C25           -1.6028    -1.5579     1.1057 C.ar    
  26 C26           -2.1447    -0.6748    -1.0732 C.ar    
  27 O27           -3.1200    -3.0445     2.1712 O.3     
  28 C28           -4.3624    -3.7472     2.1041 C.3     
  29 H29            3.3574    -0.5196    -0.0340 H       
  30 H30            5.7876     3.7512     0.5731 H       
  31 H31            3.6068     7.3755     1.1238 H       
  32 H32            1.2279    -2.4332    -0.9067 H       
  33 H33            0.8111     6.3493     1.4875 H       
  34 H34           -1.5360     2.2509     0.9050 H       
  35 H35            6.5205     6.7578     0.2615 H       
  36 H36            5.8929     7.1833     1.8719 H       
  37 H37            6.8053     5.6722     1.6431 H       
  38 H38           -4.0036    -1.3163    -1.9034 H       
  39 H39           -4.5851    -2.7257     0.0265 H       
  40 H40           -0.9320    -1.6256     1.9494 H       
  41 H41           -1.8934    -0.0551    -1.9213 H       
  42 H42           -5.1793    -3.0323     2.0057 H       
  43 H43           -4.3569    -4.4136     1.2416 H       
  44 H44           -4.4988    -4.3317     3.0140 H       
@<TRIPOS>BOND
   1    1    2 ar
   2    1    6 ar
   3    1   19 1
   4    2    3 ar
   5    2   21 1
   6    3    4 ar
   7    3   15 1
   8    4    5 ar
   9    4   29 1
  10    5    6 ar
  11    5    8 1
  12    6    7 1
  13    7   10 1
  14    7   17 2
  15    8    9 1
  16    8   16 2
  17    9   12 ar
  18    9   10 ar
  19   10   11 ar
  20   11   14 ar
  21   11   18 1
  22   12   13 ar
  23   12   30 1
  24   13   14 ar
  25   13   20 1
  26   14   31 1
  27   15   32 1
  28   18   33 1
  29   19   34 1
  30   20   35 1
  31   20   36 1
  32   20   37 1
  33   21   26 ar
  34   21   25 ar
  35   22   23 ar
  36   22   26 ar
  37   22   38 1
  38   23   24 ar
  39   23   39 1
  40   24   25 ar
  41   24   27 1
  42   25   40 1
  43   26   41 1
  44   27   28 1
  45   28   42 1
  46   28   43 1
  47   28   44 1

#	End of record

