#	Name: ASD01870575
#	Creating user name:	WinNT
#	Creation time:	15. 06. 2019 19:39

#	Modifying user name:	WinNT
#	Modification time:	15. 06. 2019 19:39

#	Program:	/corina/corina34_cracker 3.40 0067  02.08.2006

@<TRIPOS>MOLECULE
ASD01870575
  45   48    0    0    0
SMALL
NO_CHARGES


@<TRIPOS>ATOM
   1 C1            -0.0107     1.3943     0.0269 C.ar    
   2 C2             0.0041     0.0063     0.0173 C.ar    
   3 C3             1.2073    -0.6716    -0.0035 C.ar    
   4 C4             2.4025     0.0348    -0.0149 C.ar    
   5 C5             2.3887     1.4237    -0.0054 C.ar    
   6 C6             1.1858     2.1021     0.0155 C.ar    
   7 N7             3.6223    -0.6532    -0.0356 N.am    
   8 C8             4.6713    -0.1450    -0.7123 C.2     
   9 C9             5.9796    -0.8029    -0.6386 C.2     
  10 O10            6.2669    -1.9199     0.0612 O.3     
  11 C11            7.1193    -0.3956    -1.2710 C.2     
  12 C12            8.1236    -1.3124    -0.9229 C.2     
  13 C13            7.5593    -2.2293    -0.1063 C.2     
  14 C14            7.2697     0.8052    -2.1691 C.3     
  15 O15            4.5325     0.8601    -1.3847 O.2     
  16 Cl16           1.1679     3.8379     0.0268 Cl      
  17 N17           -1.2302     2.0813     0.0422 N.3     
  18 C18           -1.9938     1.8238    -1.1829 C.3     
  19 C19           -3.3443     2.4869    -1.1117 C.ar    
  20 C20           -3.8843     2.9112     0.0838 C.ar    
  21 C21           -3.1495     2.7406     1.3886 C.3     
  22 C22           -2.0263     1.7163     1.2248 C.3     
  23 C23           -4.0537     2.6682    -2.2896 C.ar    
  24 C24           -5.2969     3.2683    -2.2705 C.ar    
  25 C25           -5.8388     3.6911    -1.0713 C.ar    
  26 C26           -5.1334     3.5125     0.1021 C.ar    
  27 H27           -0.9253    -0.5437     0.0266 H       
  28 H28            1.2185    -1.7515    -0.0106 H       
  29 H29            3.3185     1.9731    -0.0139 H       
  30 H30            3.7122    -1.4954     0.4372 H       
  31 H31            9.1531    -1.2906    -1.2485 H       
  32 H32            8.0663    -3.0739     0.3365 H       
  33 H33            7.5509     1.6726    -1.5719 H       
  34 H34            8.0432     0.6090    -2.9116 H       
  35 H35            6.3237     1.0025    -2.6733 H       
  36 H36           -1.4446     2.2170    -2.0384 H       
  37 H37           -2.1267     0.7488    -1.3047 H       
  38 H38           -2.7252     3.6974     1.6928 H       
  39 H39           -3.8454     2.3954     2.1534 H       
  40 H40           -2.4537     0.7232     1.0861 H       
  41 H41           -1.3912     1.7244     2.1106 H       
  42 H42           -3.6311     2.3383    -3.2271 H       
  43 H43           -5.8447     3.4075    -3.1908 H       
  44 H44           -6.8113     4.1604    -1.0523 H       
  45 H45           -5.5568     3.8430     1.0390 H       
@<TRIPOS>BOND
   1    1    2 ar
   2    1    6 ar
   3    1   17 1
   4    2    3 ar
   5    2   27 1
   6    3    4 ar
   7    3   28 1
   8    4    5 ar
   9    4    7 1
  10    5    6 ar
  11    5   29 1
  12    6   16 1
  13    7    8 am
  14    7   30 1
  15    8    9 1
  16    8   15 2
  17    9   11 2
  18    9   10 1
  19   10   13 1
  20   11   12 1
  21   11   14 1
  22   12   13 2
  23   12   31 1
  24   13   32 1
  25   14   33 1
  26   14   34 1
  27   14   35 1
  28   17   18 1
  29   17   22 1
  30   18   19 1
  31   18   36 1
  32   18   37 1
  33   19   20 ar
  34   19   23 ar
  35   20   21 1
  36   20   26 ar
  37   21   22 1
  38   21   38 1
  39   21   39 1
  40   22   40 1
  41   22   41 1
  42   23   24 ar
  43   23   42 1
  44   24   25 ar
  45   24   43 1
  46   25   26 ar
  47   25   44 1
  48   26   45 1

#	End of record

