#	Name: ASD02198772
#	Creating user name:	WinNT
#	Creation time:	15. 06. 2019 20:20

#	Modifying user name:	WinNT
#	Modification time:	15. 06. 2019 20:20

#	Program:	/corina/corina34_cracker 3.40 0067  02.08.2006

@<TRIPOS>MOLECULE
ASD02198772
  51   55    0    0    0
SMALL
NO_CHARGES


@<TRIPOS>ATOM
   1 C1            -0.0432     1.5016    -0.1151 C.2     
   2 C2            -0.0730     0.1620     0.0973 C.2     
   3 N3             1.0715    -0.5397     0.2602 N.pl3   
   4 N4             2.2360    -0.0050     0.2266 N.2     
   5 C5             2.4075     1.2844     0.0280 C.2     
   6 C6             1.2217     2.1356    -0.1606 C.2     
   7 C7             0.9800    -1.9176     0.4765 C.ar    
   8 C8             1.5821    -2.4886     1.5977 C.ar    
   9 C9             1.4911    -3.8524     1.8110 C.ar    
  10 C10            0.7978    -4.6524     0.9047 C.ar    
  11 C11            0.1975    -4.0769    -0.2149 C.ar    
  12 C12            0.2846    -2.7168    -0.4226 C.ar    
  13 C13            3.7645     1.8666    -0.0041 C.2     
  14 N14            4.3069     2.6065    -1.0171 N.pl3   
  15 N15            5.6086     2.9582    -0.6387 N.2     
  16 C16            5.8518     2.4590     0.5469 C.2     
  17 C17            4.7198     1.7714     0.9841 C.2     
  18 C18            3.6745     2.9507    -2.2185 C.ar    
  19 C19            3.8084     4.2338    -2.7325 C.ar    
  20 C20            3.1840     4.5700    -3.9176 C.ar    
  21 C21            2.4260     3.6306    -4.5922 C.ar    
  22 C22            2.2903     2.3522    -4.0827 C.ar    
  23 C23            2.9169     2.0081    -2.9010 C.ar    
  24 O24            1.3247     3.3387    -0.3484 O.2     
  25 C25            0.6989    -6.1149     1.1303 C.ar    
  26 C26            0.0080    -6.9348     0.2331 C.ar    
  27 C27           -0.0596    -8.2902     0.4811 C.ar    
  28 N28            0.5159    -8.8133     1.5469 N.ar    
  29 C29            1.1771    -8.0751     2.4179 C.ar    
  30 C30            1.2988    -6.7120     2.2430 C.ar    
  31 O31            2.2580    -1.7058     2.4796 O.3     
  32 C32            2.8494    -2.3581     3.6051 C.3     
  33 H33           -0.9546     2.0652    -0.2497 H       
  34 H34           -1.0228    -0.3505     0.1373 H       
  35 H35            1.9569    -4.2965     2.6783 H       
  36 H36           -0.3395    -4.6967    -0.9176 H       
  37 H37           -0.1813    -2.2730    -1.2900 H       
  38 H38            6.7750     2.5655     1.0972 H       
  39 H39            4.6136     1.2519     1.9250 H       
  40 H40            4.4000     4.9681    -2.2059 H       
  41 H41            3.2875     5.5678    -4.3177 H       
  42 H42            1.9387     3.8959    -5.5188 H       
  43 H43            1.6973     1.6208    -4.6117 H       
  44 H44            2.8108     1.0094    -2.5038 H       
  45 H45           -0.4660    -6.5133    -0.6410 H       
  46 H46           -0.5911    -8.9317    -0.2062 H       
  47 H47            1.6330    -8.5448     3.2769 H       
  48 H48            1.8418    -6.1139     2.9597 H       
  49 H49            2.0724    -2.8526     4.1881 H       
  50 H50            3.5703    -3.0985     3.2585 H       
  51 H51            3.3565    -1.6206     4.2273 H       
@<TRIPOS>BOND
   1    1    2 2
   2    1    6 1
   3    1   33 1
   4    2    3 1
   5    2   34 1
   6    3    4 1
   7    3    7 1
   8    4    5 2
   9    5    6 1
  10    5   13 1
  11    6   24 2
  12    7    8 ar
  13    7   12 ar
  14    8    9 ar
  15    8   31 1
  16    9   10 ar
  17    9   35 1
  18   10   11 ar
  19   10   25 1
  20   11   12 ar
  21   11   36 1
  22   12   37 1
  23   13   14 1
  24   13   17 2
  25   14   15 1
  26   14   18 1
  27   15   16 2
  28   16   17 1
  29   16   38 1
  30   17   39 1
  31   18   19 ar
  32   18   23 ar
  33   19   20 ar
  34   19   40 1
  35   20   21 ar
  36   20   41 1
  37   21   22 ar
  38   21   42 1
  39   22   23 ar
  40   22   43 1
  41   23   44 1
  42   25   26 ar
  43   25   30 ar
  44   26   27 ar
  45   26   45 1
  46   27   28 ar
  47   27   46 1
  48   28   29 ar
  49   29   30 ar
  50   29   47 1
  51   30   48 1
  52   31   32 1
  53   32   49 1
  54   32   50 1
  55   32   51 1

#	End of record

