#	Name: ASD01180384
#	Creating user name:	WinNT
#	Creation time:	15. 06. 2019 19:07

#	Modifying user name:	WinNT
#	Modification time:	15. 06. 2019 19:07

#	Program:	/corina/corina34_cracker 3.40 0067  02.08.2006

@<TRIPOS>MOLECULE
ASD01180384
  25   25    0    0    0
SMALL
NO_CHARGES


@<TRIPOS>ATOM
   1 C1            -0.0187     1.5258     0.0104 C.3     
   2 C2             0.0021    -0.0041     0.0020 C.3     
   3 C3             0.6310    -0.5127     1.3007 C.3     
   4 C4             0.6518    -2.0426     1.2923 C.3     
   5 O5             1.3220     2.0204     0.0003 O.3     
   6 C6            -0.7475     2.0250    -1.2105 C.ar    
   7 C7            -2.1277     2.1385    -1.1949 C.ar    
   8 C8            -2.7962     2.5976    -2.3167 C.ar    
   9 C9            -2.0851     2.9424    -3.4517 C.ar    
  10 C10           -0.7068     2.8281    -3.4658 C.ar    
  11 C11           -0.0384     2.3749    -2.3436 C.ar    
  12 F12           -2.8212     1.8009    -0.0857 F       
  13 Br13          -2.9974     3.5697    -4.9847 Br      
  14 H14           -0.5289     1.8773     0.9072 H       
  15 H15           -1.0175    -0.3808    -0.0798 H       
  16 H16            0.5883    -0.3548    -0.8473 H       
  17 H17            1.6506    -0.1360     1.3826 H       
  18 H18            0.0448    -0.1620     2.1500 H       
  19 H19            1.0998    -2.4050     2.2175 H       
  20 H20           -0.3678    -2.4193     1.2104 H       
  21 H21            1.2380    -2.3933     0.4429 H       
  22 H22            1.8365     1.7462    -0.7712 H       
  23 H23           -3.8725     2.6861    -2.3057 H       
  24 H24           -0.1520     3.0971    -4.3525 H       
  25 H25            1.0383     2.2906    -2.3540 H       
@<TRIPOS>BOND
   1    1    2 1
   2    1    5 1
   3    1    6 1
   4    1   14 1
   5    2    3 1
   6    2   15 1
   7    2   16 1
   8    3    4 1
   9    3   17 1
  10    3   18 1
  11    4   19 1
  12    4   20 1
  13    4   21 1
  14    5   22 1
  15    6    7 ar
  16    6   11 ar
  17    7    8 ar
  18    7   12 1
  19    8    9 ar
  20    8   23 1
  21    9   10 ar
  22    9   13 1
  23   10   11 ar
  24   10   24 1
  25   11   25 1

#	End of record

