#	Name: ASD05250074
#	Creating user name:	WinNT
#	Creation time:	15. 06. 2019 20:58

#	Modifying user name:	WinNT
#	Modification time:	15. 06. 2019 20:58

#	Program:	/corina/corina34_cracker 3.40 0067  02.08.2006

@<TRIPOS>MOLECULE
ASD05250074
  34   35    0    0    0
SMALL
NO_CHARGES


@<TRIPOS>ATOM
   1 C1             0.5456     2.6407     0.7317 C.ar    
   2 C2             0.7923     1.3051     0.4468 C.ar    
   3 C3            -0.2492     0.4660     0.0770 C.ar    
   4 C4            -1.5406     0.9580    -0.0089 C.ar    
   5 C5            -1.7941     2.3015     0.2773 C.ar    
   6 C6            -0.7431     3.1410     0.6538 C.ar    
   7 O7             1.5698     3.4575     1.0934 O.3     
   8 O8            -0.0012    -0.8408    -0.2017 O.3     
   9 C9            -3.1670     2.8303     0.1874 C.2     
  10 C10           -3.4082     4.1221     0.4631 C.2     
  11 C11           -4.7806     4.6508     0.3732 C.ar    
  12 C12           -5.0342     5.9952     0.6597 C.ar    
  13 C13           -6.3193     6.4850     0.5743 C.ar    
  14 C14           -7.3619     5.6450     0.2047 C.ar    
  15 C15           -7.1149     4.3082    -0.0805 C.ar    
  16 C16           -5.8321     3.8108    -0.0043 C.ar    
  17 O17           -8.6276     6.1324     0.1223 O.3     
  18 C18           -8.9252     6.8768    -0.9547 C.2     
  19 O19           -8.1141     7.0091    -1.8405 O.2     
  20 C20          -10.2708     7.5474    -1.0588 C.3     
  21 H21            1.7982     0.9176     0.5127 H       
  22 H22           -2.3505     0.3042    -0.2972 H       
  23 H23           -0.9341     4.1805     0.8761 H       
  24 H24            2.0015     3.8999     0.3497 H       
  25 H25           -0.0642    -1.4255     0.5659 H       
  26 H26           -3.9789     2.1788    -0.1002 H       
  27 H27           -2.5963     4.7737     0.7507 H       
  28 H28           -4.2242     6.6490     0.9479 H       
  29 H29           -6.5162     7.5236     0.7955 H       
  30 H30           -7.9289     3.6587    -0.3668 H       
  31 H31           -5.6411     2.7713    -0.2263 H       
  32 H32          -10.2171     8.5408    -0.6134 H       
  33 H33          -10.5532     7.6343    -2.1079 H       
  34 H34          -11.0153     6.9520    -0.5302 H       
@<TRIPOS>BOND
   1    1    2 ar
   2    1    7 1
   3    1    6 ar
   4    2    3 ar
   5    2   21 1
   6    3    4 ar
   7    3    8 1
   8    4    5 ar
   9    4   22 1
  10    5    6 ar
  11    5    9 1
  12    6   23 1
  13    7   24 1
  14    8   25 1
  15    9   10 2
  16    9   26 1
  17   10   11 1
  18   10   27 1
  19   11   12 ar
  20   11   16 ar
  21   12   13 ar
  22   12   28 1
  23   13   14 ar
  24   13   29 1
  25   14   15 ar
  26   14   17 1
  27   15   16 ar
  28   15   30 1
  29   16   31 1
  30   17   18 1
  31   18   19 2
  32   18   20 1
  33   20   32 1
  34   20   33 1
  35   20   34 1

#	End of record

