#	Name: ASD01911392
#	Creating user name:	WinNT
#	Creation time:	15. 06. 2019 19:57

#	Modifying user name:	WinNT
#	Modification time:	15. 06. 2019 19:57

#	Program:	/corina/corina34_cracker 3.40 0067  02.08.2006

@<TRIPOS>MOLECULE
ASD01911392
  39   40    0    0    0
SMALL
NO_CHARGES


@<TRIPOS>ATOM
   1 N1            -0.0169     1.3965     0.0097 N.2     
   2 N2             0.0021    -0.0041     0.0020 N.pl3   
   3 C3             1.2287     1.8225     0.0001 C.2     
   4 C4             2.0725     0.6945    -0.0140 C.2     
   5 C5             1.2910    -0.4071    -0.0125 C.2     
   6 C6             1.7726    -1.8350    -0.0243 C.3     
   7 C7             1.6665     3.2400     0.0028 C.ar    
   8 N8             2.9612     3.5280    -0.0084 N.ar    
   9 C9            -1.1724    -0.8797     0.0090 C.3     
  10 C10           -1.5888    -1.1729    -1.4094 C.2     
  11 O11           -2.6492    -1.9605    -1.6484 O.3     
  12 O12           -0.9682    -0.6989    -2.3314 O.2     
  13 C13           -2.9926    -2.1996    -3.0388 C.3     
  14 C14            2.0686    -2.2853     1.4077 C.3     
  15 C15            3.3923     4.7731    -0.0069 C.ar    
  16 C16            2.5014     5.8331     0.0065 C.ar    
  17 C17            1.1358     5.5742     0.0185 C.ar    
  18 C18            0.7137     4.2568     0.0113 C.ar    
  19 F19            2.9549     7.1057     0.0083 F       
  20 C20            4.8741     5.0471    -0.0195 C.3     
  21 C21            2.5576    -3.7350     1.3957 C.3     
  22 H22            3.1523     0.7081    -0.0242 H       
  23 H23            1.0020    -2.4748    -0.4544 H       
  24 H24            2.6807    -1.9072    -0.6229 H       
  25 H25           -0.9268    -1.8130     0.5158 H       
  26 H26           -1.9906    -0.3860     0.5332 H       
  27 H27           -2.1531    -2.6776    -3.5434 H       
  28 H28           -3.8658    -2.8499    -3.0907 H       
  29 H29           -3.2169    -1.2506    -3.5260 H       
  30 H30            2.8392    -1.6455     1.8378 H       
  31 H31            1.1605    -2.2131     2.0063 H       
  32 H32            0.4205     6.3833     0.0295 H       
  33 H33           -0.3399     4.0196     0.0202 H       
  34 H34            5.2218     5.1177    -1.0502 H       
  35 H35            5.0744     5.9861     0.4966 H       
  36 H36            5.3979     4.2358     0.4859 H       
  37 H37            1.7870    -4.3748     0.9656 H       
  38 H38            3.4656    -3.8072     0.7971 H       
  39 H39            2.7685    -4.0558     2.4159 H       
@<TRIPOS>BOND
   1    1    2 1
   2    1    3 2
   3    2    9 1
   4    2    5 1
   5    3    4 1
   6    3    7 1
   7    4    5 2
   8    4   22 1
   9    5    6 1
  10    6   14 1
  11    6   23 1
  12    6   24 1
  13    7    8 ar
  14    7   18 ar
  15    8   15 ar
  16    9   10 1
  17    9   25 1
  18    9   26 1
  19   10   11 1
  20   10   12 2
  21   11   13 1
  22   13   27 1
  23   13   28 1
  24   13   29 1
  25   14   21 1
  26   14   30 1
  27   14   31 1
  28   15   16 ar
  29   15   20 1
  30   16   17 ar
  31   16   19 1
  32   17   18 ar
  33   17   32 1
  34   18   33 1
  35   20   34 1
  36   20   35 1
  37   20   36 1
  38   21   37 1
  39   21   38 1
  40   21   39 1

#	End of record

