#	Name: ASD01940606
#	Creating user name:	WinNT
#	Creation time:	15. 06. 2019 20:12

#	Modifying user name:	WinNT
#	Modification time:	15. 06. 2019 20:12

#	Program:	/corina/corina34_cracker 3.40 0067  02.08.2006

@<TRIPOS>MOLECULE
ASD01940606
  41   44    0    0    0
SMALL
NO_CHARGES


@<TRIPOS>ATOM
   1 C1            -0.1684     1.4713     0.1919 C.ar    
   2 C2            -0.3179     0.0743     0.1999 C.ar    
   3 C3             0.8048    -0.7198     0.3862 C.ar    
   4 N4             1.9961    -0.1829     0.5538 N.ar    
   5 C5             2.1866     1.1200     0.5541 C.ar    
   6 C6             1.1236     1.9978     0.3750 C.ar    
   7 N7             1.3334     3.3712     0.3762 N.pl3   
   8 C8             2.4374     3.9095     1.0457 C.ar    
   9 C9            -1.3288     2.3583    -0.0082 C.2     
  10 O10           -1.9691     2.7474     0.9496 O.2     
  11 N11           -1.6801     2.7381    -1.2527 N.am    
  12 O12           -1.5399    -0.4891     0.0287 O.3     
  13 C13           -1.6445    -1.8383     0.1585 C.ar    
  14 C14            3.0596     3.1868     2.0543 C.ar    
  15 C15            4.1499     3.7209     2.7140 C.ar    
  16 C16            4.6224     4.9746     2.3711 C.ar    
  17 C17            4.0053     5.6992     1.3666 C.ar    
  18 C18            2.9179     5.1682     0.6982 C.ar    
  19 I19            6.2759     5.7789     3.3751 I       
  20 F20            2.3192     5.8727    -0.2869 F       
  21 C21           -1.6551    -2.4137     1.4193 C.ar    
  22 C22           -1.7619    -3.7894     1.5472 C.ar    
  23 C23           -1.8584    -4.5918     0.4105 C.ar    
  24 C24           -1.8468    -4.0096    -0.8474 C.ar    
  25 C25           -1.7464    -2.6383    -0.9723 C.ar    
  26 O26           -1.9497    -5.8777     0.8324 O.3     
  27 C27           -1.9139    -5.9051     2.1738 C.2     
  28 N28           -1.7997    -4.6479     2.6456 N.am    
  29 O29           -1.9755    -6.9088     2.8575 O.2     
  30 H30            0.7003    -1.7947     0.3943 H       
  31 H31            3.1828     1.5122     0.6955 H       
  32 H32            0.7144     3.9568    -0.0873 H       
  33 H33           -1.1694     2.4277    -2.0168 H       
  34 H34           -2.4436     3.3217    -1.3844 H       
  35 H35            2.6915     2.2078     2.3235 H       
  36 H36            4.6337     3.1586     3.4990 H       
  37 H37            4.3762     6.6782     1.1015 H       
  38 H38           -1.5800    -1.7920     2.2993 H       
  39 H39           -1.9214    -4.6282    -1.7296 H       
  40 H40           -1.7427    -2.1862    -1.9532 H       
  41 H41           -1.7525    -4.3876     3.5789 H       
@<TRIPOS>BOND
   1    1    2 ar
   2    1    6 ar
   3    1    9 1
   4    2    3 ar
   5    2   12 1
   6    3    4 ar
   7    3   30 1
   8    4    5 ar
   9    5    6 ar
  10    5   31 1
  11    6    7 1
  12    7    8 1
  13    7   32 1
  14    8   14 ar
  15    8   18 ar
  16    9   10 2
  17    9   11 am
  18   11   33 1
  19   11   34 1
  20   12   13 1
  21   13   21 ar
  22   13   25 ar
  23   14   15 ar
  24   14   35 1
  25   15   16 ar
  26   15   36 1
  27   16   17 ar
  28   16   19 1
  29   17   18 ar
  30   17   37 1
  31   18   20 1
  32   21   22 ar
  33   21   38 1
  34   22   23 ar
  35   22   28 1
  36   23   24 ar
  37   23   26 1
  38   24   25 ar
  39   24   39 1
  40   25   40 1
  41   26   27 1
  42   27   28 am
  43   27   29 2
  44   28   41 1

#	End of record

