#	Name: ASD00310180
#	Creating user name:	WinNT
#	Creation time:	15. 06. 2019 18:33

#	Modifying user name:	WinNT
#	Modification time:	15. 06. 2019 18:33

#	Program:	/corina/corina34_cracker 3.40 0067  02.08.2006

@<TRIPOS>MOLECULE
ASD00310180
  43   46    0    0    0
SMALL
NO_CHARGES


@<TRIPOS>ATOM
   1 N1            -0.0163     1.3501     0.0059 N.pl3   
   2 C2             0.0018    -0.0037    -0.0189 C.2     
   3 C3             1.2918    -0.4479    -0.0418 C.2     
   4 C4             2.1473     0.7541    -0.0299 C.ar    
   5 C5             3.5229     0.9584    -0.0424 C.ar    
   6 C6             4.0241     2.2538    -0.0251 C.ar    
   7 C7             3.1469     3.3434     0.0053 C.ar    
   8 C8             1.7853     3.1434     0.0182 C.ar    
   9 C9             1.2696     1.8502     0.0001 C.ar    
  10 C10            1.7397    -1.8448    -0.0719 C.2     
  11 O11            2.9280    -2.1021    -0.0899 O.2     
  12 O12            0.8335    -2.8433    -0.0797 O.3     
  13 C13            5.4899     2.4820    -0.0383 C.ar    
  14 C14            6.1168     3.0741     1.0593 C.ar    
  15 C15            7.4830     3.2833     1.0404 C.ar    
  16 C16            8.2271     2.9070    -0.0630 C.ar    
  17 C17            7.6100     2.3203    -1.1530 C.ar    
  18 C18            6.2471     2.1009    -1.1437 C.ar    
  19 C19            9.7163     3.1375    -0.0780 C.3     
  20 C20           10.4459     2.5297     1.1315 C.3     
  21 C21           11.5587     2.1174     0.1534 C.3     
  22 C22           10.4867     2.1311    -0.9490 C.3     
  23 C23           10.0889     4.5965    -0.3489 C.3     
  24 O24            9.3907     5.0594    -1.5066 O.3     
  25 F25            5.3901     3.4423     2.1370 F       
  26 Cl26           3.7807     4.9595     0.0274 Cl      
  27 H27           -0.8206     1.8923     0.0213 H       
  28 H28           -0.8732    -0.6367    -0.0200 H       
  29 H29            4.1973     0.1152    -0.0652 H       
  30 H30            1.1160     3.9907     0.0424 H       
  31 H31            1.1764    -3.7472    -0.0997 H       
  32 H32            7.9701     3.7417     1.8884 H       
  33 H33            8.1965     2.0289    -2.0117 H       
  34 H34            5.7679     1.6382    -1.9938 H       
  35 H35           10.7629     3.2690     1.8670 H       
  36 H36            9.9219     1.6846     1.5780 H       
  37 H37           12.3290     2.8775     0.0229 H       
  38 H38           11.9690     1.1271     0.3512 H       
  39 H39            9.9738     1.1771    -1.0712 H       
  40 H40           10.8365     2.5488    -1.8931 H       
  41 H41            9.8127     5.2076     0.5105 H       
  42 H42           11.1630     4.6718    -0.5180 H       
  43 H43            9.5794     5.9792    -1.7381 H       
@<TRIPOS>BOND
   1    1    2 1
   2    1    9 1
   3    1   27 1
   4    2    3 2
   5    2   28 1
   6    3    4 1
   7    3   10 1
   8    4    5 ar
   9    4    9 ar
  10    5    6 ar
  11    5   29 1
  12    6    7 ar
  13    6   13 1
  14    7    8 ar
  15    7   26 1
  16    8    9 ar
  17    8   30 1
  18   10   11 2
  19   10   12 1
  20   12   31 1
  21   13   14 ar
  22   13   18 ar
  23   14   15 ar
  24   14   25 1
  25   15   16 ar
  26   15   32 1
  27   16   17 ar
  28   16   19 1
  29   17   18 ar
  30   17   33 1
  31   18   34 1
  32   19   20 1
  33   19   22 1
  34   19   23 1
  35   20   21 1
  36   20   35 1
  37   20   36 1
  38   21   22 1
  39   21   37 1
  40   21   38 1
  41   22   39 1
  42   22   40 1
  43   23   24 1
  44   23   41 1
  45   23   42 1
  46   24   43 1

#	End of record

