#	Name: ASD03240437
#	Creating user name:	WinNT
#	Creation time:	15. 06. 2019 20:34

#	Modifying user name:	WinNT
#	Modification time:	15. 06. 2019 20:34

#	Program:	/corina/corina34_cracker 3.40 0067  02.08.2006

@<TRIPOS>MOLECULE
ASD03240437
  35   37    0    0    0
SMALL
NO_CHARGES


@<TRIPOS>ATOM
   1 C1            -0.0167     1.3782     0.0096 C.ar    
   2 C2             0.0021    -0.0041     0.0020 C.ar    
   3 C3             2.5015     1.5069    -2.0858 C.ar    
   4 C4             1.6970     2.4141    -1.4218 C.ar    
   5 C5             1.2782     2.1491     0.0014 C.3     
   6 C6             2.8862     1.7500    -3.3909 C.ar    
   7 C7             2.4662     2.9008    -4.0325 C.ar    
   8 C8             1.6614     3.8082    -3.3680 C.ar    
   9 C9             1.2771     3.5646    -2.0629 C.ar    
  10 I10            3.0496     3.2700    -6.0105 I       
  11 C11           -1.1852    -0.7116     0.0096 C.ar    
  12 C12           -2.3926    -0.0363     0.0247 C.ar    
  13 C13           -2.4107     1.3471     0.0323 C.ar    
  14 C14           -1.2228     2.0536     0.0190 C.ar    
  15 Cl15          -3.8842    -0.9243     0.0336 Cl      
  16 C16            1.0857     3.4796     0.7339 C.3     
  17 N17            0.7527     3.2147     2.1411 N.3     
  18 C18            1.8147     2.4315     2.7892 C.3     
  19 C19            1.9999     1.1115     2.0361 C.3     
  20 O20            2.2916     1.3875     0.6635 O.3     
  21 H21            0.9446    -0.5312    -0.0102 H       
  22 H22            2.8330     0.6103    -1.5832 H       
  23 H23            3.5149     1.0414    -3.9095 H       
  24 H24            1.3336     4.7072    -3.8687 H       
  25 H25            0.6483     4.2730    -1.5440 H       
  26 H26           -1.1704    -1.7915     0.0033 H       
  27 H27           -3.3529     1.8749     0.0441 H       
  28 H28           -1.2368     3.1335     0.0249 H       
  29 H29            2.0063     4.0608     0.6809 H       
  30 H30            0.2746     4.0382     0.2668 H       
  31 H31            0.5817     4.0747     2.6403 H       
  32 H32            2.7470     2.9959     2.7691 H       
  33 H33            1.5357     2.2251     3.8225 H       
  34 H34            2.8247     0.5528     2.4783 H       
  35 H35            1.0845     0.5234     2.1019 H       
@<TRIPOS>BOND
   1    1    2 ar
   2    1    5 1
   3    1   14 ar
   4    2   11 ar
   5    2   21 1
   6    3    4 ar
   7    3    6 ar
   8    3   22 1
   9    4    5 1
  10    4    9 ar
  11    5   16 1
  12    5   20 1
  13    6    7 ar
  14    6   23 1
  15    7    8 ar
  16    7   10 1
  17    8    9 ar
  18    8   24 1
  19    9   25 1
  20   11   12 ar
  21   11   26 1
  22   12   13 ar
  23   12   15 1
  24   13   14 ar
  25   13   27 1
  26   14   28 1
  27   16   17 1
  28   16   29 1
  29   16   30 1
  30   17   18 1
  31   17   31 1
  32   18   19 1
  33   18   32 1
  34   18   33 1
  35   19   20 1
  36   19   34 1
  37   19   35 1

#	End of record

