#	Name: ASD03091691
#	Creating user name:	WinNT
#	Creation time:	15. 06. 2019 20:31

#	Modifying user name:	WinNT
#	Modification time:	15. 06. 2019 20:31

#	Program:	/corina/corina34_cracker 3.40 0067  02.08.2006

@<TRIPOS>MOLECULE
ASD03091691
  48   49    0    0    0
SMALL
NO_CHARGES


@<TRIPOS>ATOM
   1 Cl1            0.0000     0.0000     0.0000 Cl      
   2 H2             0.0000     1.3700     0.0000 H       
   3 Cl3            5.0000     6.3700     5.0000 Cl      
   4 H4             5.0000     7.7400     5.0000 H       
   5 C5            19.5239    17.7927    11.5723 C.ar    
   6 C6            19.5430    16.3912    11.5646 C.ar    
   7 C7            20.7615    15.7098    11.5501 C.ar    
   8 C8            21.9541    16.4181    11.5437 C.ar    
   9 C9            21.9341    17.8199    11.5514 C.ar    
  10 C10           20.7567    18.4923    11.5643 C.ar    
  11 S11           17.8925    15.7796    11.5771 S.3     
  12 C12           17.2368    17.4071    11.5921 C.2     
  13 C13           18.2209    18.3128    11.5933 C.2     
  14 C14           15.8024    17.7307    11.6070 C.2     
  15 O15           15.4410    18.8922    11.6163 O.2     
  16 N16           14.8882    16.7405    11.6105 N.am    
  17 N17           11.9511    16.3190    13.4053 N.3     
  18 C18           12.9997    17.2911    13.0683 C.3     
  19 C19           13.4592    17.0629    11.6254 C.3     
  20 C20           12.6625    15.8946    11.0312 C.3     
  21 C21           11.1696    16.2425    11.0861 C.3     
  22 C22           10.7734    16.4928    12.5439 C.3     
  23 C23           12.4616    14.9433    13.3267 C.3     
  24 C24           12.9064    14.6483    11.8915 C.3     
  25 C25           23.2450    15.6955    11.5292 C.2     
  26 N26           24.4351    16.4039    11.5228 N.pl3   
  27 N27           23.2623    14.3945    11.5225 N.2     
  28 O28           24.4978    13.7030    11.5087 O.3     
  29 H29           20.7755    14.6299    11.5441 H       
  30 H30           22.8642    18.3688    11.5464 H       
  31 H31           20.7582    19.5723    11.5701 H       
  32 H32           18.0254    19.3750    11.6020 H       
  33 H33           15.1764    15.8143    11.6031 H       
  34 H34           12.6042    18.3019    13.1684 H       
  35 H35           13.8453    17.1627    13.7439 H       
  36 H36           13.2798    17.9634    11.0381 H       
  37 H37           12.9686    15.7182    10.0000 H       
  38 H38           10.9819    17.1404    10.4973 H       
  39 H39           10.5863    15.4129    10.6864 H       
  40 H40           10.0000    15.7831    12.8376 H       
  41 H41           10.3934    17.5091    12.6481 H       
  42 H42           13.3107    14.8314    14.0009 H       
  43 H43           11.6744    14.2463    13.6140 H       
  44 H44           12.3302    13.8124    11.4951 H       
  45 H45           13.9677    14.3999    11.8819 H       
  46 H46           24.4222    17.3738    11.5278 H       
  47 H47           25.2815    15.9302    11.5134 H       
  48 H48           24.4095    12.7400    11.5045 H       
@<TRIPOS>BOND
   1    1    2 1
   2    3    4 1
   3    5    6 ar
   4    5   10 ar
   5    5   13 1
   6    6    7 ar
   7    6   11 1
   8    7    8 ar
   9    7   29 1
  10    8    9 ar
  11    8   25 1
  12    9   10 ar
  13    9   30 1
  14   10   31 1
  15   11   12 1
  16   12   13 2
  17   12   14 1
  18   13   32 1
  19   14   15 2
  20   14   16 am
  21   16   19 1
  22   16   33 1
  23   17   18 1
  24   17   22 1
  25   17   23 1
  26   18   19 1
  27   18   34 1
  28   18   35 1
  29   19   20 1
  30   19   36 1
  31   20   21 1
  32   20   24 1
  33   20   37 1
  34   21   22 1
  35   21   38 1
  36   21   39 1
  37   22   40 1
  38   22   41 1
  39   23   24 1
  40   23   42 1
  41   23   43 1
  42   24   44 1
  43   24   45 1
  44   25   26 1
  45   25   27 2
  46   26   46 1
  47   26   47 1
  48   27   28 1
  49   28   48 1

#	End of record

