#	Name: ASD02270025
#	Creating user name:	WinNT
#	Creation time:	15. 06. 2019 20:20

#	Modifying user name:	WinNT
#	Modification time:	15. 06. 2019 20:20

#	Program:	/corina/corina34_cracker 3.40 0067  02.08.2006

@<TRIPOS>MOLECULE
ASD02270025
 152  152    0    0    0
SMALL
NO_CHARGES


@<TRIPOS>ATOM
   1 P1             5.5125    11.7311     6.8400 P.3     
   2 P2             8.9335     7.7543     3.3245 P.3     
   3 P3             6.7834     4.3179     5.9131 P.3     
   4 O4             6.0386    10.2169     6.6902 O.3     
   5 O5             7.5520     7.3482     4.0447 O.3     
   6 O6             6.2599     5.8344     6.0490 O.3     
   7 O7             5.6485     9.4348     4.0042 O.3     
   8 O8             6.6500     6.6165     8.7351 O.3     
   9 O9             4.7464     8.7030     8.6945 O.3     
  10 O10            6.7264    12.6766     7.3138 O.3     
  11 O11            4.9523    12.2473     5.4216 O.3     
  12 O12           10.1729     7.3051     4.2488 O.3     
  13 O13            9.0325     7.0149     1.8978 O.3     
  14 O14            7.2958     3.7965     7.3475 O.3     
  15 O15            5.5807     3.3790     5.3990 O.3     
  16 O16            4.4280    11.7794     7.8459 O.2     
  17 O17            8.9732     9.2202     3.1243 O.2     
  18 O18            7.8991     4.2664     4.9421 O.2     
  19 O19            7.9869    13.7773     9.6400 O.3     
  20 O20            9.1249    12.9636     7.1180 O.3     
  21 O21            6.7584    15.2744    10.7043 O.2     
  22 O22           11.0837    13.4203     6.2027 O.2     
  23 C23            7.0964     7.9578     5.2542 C.3     
  24 C24            7.1178     6.9268     6.3845 C.3     
  25 C25            5.1807     9.1245     6.3548 C.3     
  26 C26            5.6685     8.4718     5.0598 C.3     
  27 C27            6.6300     7.5794     7.6794 C.3     
  28 C28            5.2021     8.0934     7.4850 C.3     
  29 C29            6.5465    14.0422     7.6944 C.3     
  30 C30            7.7994    14.5393     8.4182 C.3     
  31 C31            9.0183    14.3571     7.5115 C.3     
  32 C32            7.4040    14.2542    10.7511 C.2     
  33 C33            7.5547    13.5170    12.0568 C.3     
  34 C34            6.7990    14.2666    13.1558 C.3     
  35 C35           10.2138    12.6097     6.4174 C.2     
  36 C36           10.3513    11.2015     5.8986 C.3     
  37 C37            6.9520    13.5182    14.4815 C.3     
  38 C38           11.6372    11.0837     5.0779 C.3     
  39 C39           11.8421     9.6269     4.6576 C.3     
  40 C40            6.1963    14.2678    15.5805 C.3     
  41 C41           13.1917     9.4851     3.9508 C.3     
  42 C42           13.3967     8.0283     3.5304 C.3     
  43 C43            6.3493    13.5194    16.9062 C.3     
  44 C44           14.7462     7.8865     2.8236 C.3     
  45 C45            5.5935    14.2690    18.0052 C.3     
  46 C46           14.9512     6.4298     2.4033 C.3     
  47 C47            5.7466    13.5206    19.3309 C.3     
  48 C48           16.3007     6.2880     1.6965 C.3     
  49 C49           16.5026     4.8531     1.2825 C.2     
  50 C50            5.0022    14.2590    20.4134 C.2     
  51 C51           16.7788     4.5640     0.0350 C.2     
  52 C52            4.1136    13.6308    21.1427 C.2     
  53 C53           17.0477     5.6697    -0.9530 C.3     
  54 C54            3.9650    12.1356    21.0272 C.3     
  55 C55           18.3186     5.3722    -1.7063 C.2     
  56 C56            4.0856    11.5118    22.3937 C.2     
  57 C57           18.3369     5.4444    -3.0142 C.2     
  58 C58           15.1982     6.6381    -7.2403 C.3     
  59 C59           14.2643     5.5509    -7.7757 C.3     
  60 C60           16.3472     5.9880    -6.4669 C.3     
  61 C61            3.0598    10.8937    22.9245 C.2     
  62 C62           17.1368     5.9733    -3.7566 C.3     
  63 C63           13.1153     6.2010    -8.5491 C.3     
  64 C64            1.7125    10.9556    22.2522 C.3     
  65 C65           17.2671     7.0589    -5.9396 C.2     
  66 C66           17.5631     7.0982    -4.6641 C.2     
  67 C67            1.3103     9.5550    21.7859 C.3     
  68 C68           12.1814     5.1138    -9.0844 C.3     
  69 C69           -0.0576     9.6178    21.1034 C.3     
  70 H70            4.7729     9.8041     3.8253 H       
  71 H71            6.3524     6.9616     9.5879 H       
  72 H72            4.7337     8.1061     9.4552 H       
  73 H73            5.6107    12.2428     4.7134 H       
  74 H74           10.2101     6.3545     4.4221 H       
  75 H75            9.8415     7.2140     1.4069 H       
  76 H76            6.6151     3.8029     8.0344 H       
  77 H77            5.8249     2.4493     5.2941 H       
  78 H78            7.7508     8.7911     5.5101 H       
  79 H79            8.1351     6.5606     6.5230 H       
  80 H80            4.1634     9.4906     6.2163 H       
  81 H81            5.0141     7.6385     4.8039 H       
  82 H82            7.2844     8.4127     7.9353 H       
  83 H83            4.5477     7.2602     7.2292 H       
  84 H84            6.3766    14.6481     6.8044 H       
  85 H85            5.6865    14.1238     8.3591 H       
  86 H86            7.6830    15.5951     8.6627 H       
  87 H87            9.9189    14.6526     8.0497 H       
  88 H88            8.9059    14.9781     6.6227 H       
  89 H89            7.1459    12.5116    11.9557 H       
  90 H90            8.6108    13.4552    12.3193 H       
  91 H91            7.2077    15.2720    13.2569 H       
  92 H92            5.7429    14.3284    12.8933 H       
  93 H93           10.3911    10.5074     6.7381 H       
  94 H94            9.4949    10.9612     5.2687 H       
  95 H95            6.5432    12.5128    14.3804 H       
  96 H96            8.0081    13.4564    14.7440 H       
  97 H97           11.5600    11.7107     4.1897 H       
  98 H98           12.4843    11.4105     5.6809 H       
  99 H99           11.8256     8.9882     5.5407 H       
 100 H100          11.0433     9.3288     3.9785 H       
 101 H101           6.6050    15.2732    15.6816 H       
 102 H102           5.1402    14.3297    15.3180 H       
 103 H103          13.2082    10.1238     3.0677 H       
 104 H104          13.9905     9.7832     4.6298 H       
 105 H105          13.3801     7.3896     4.4135 H       
 106 H106          12.5978     7.7303     2.8514 H       
 107 H107           5.9405    12.5140    16.8051 H       
 108 H108           7.4054    13.4576    17.1687 H       
 109 H109          14.7627     8.5253     1.9406 H       
 110 H110          15.5451     8.1846     3.5027 H       
 111 H111           6.0023    15.2744    18.1063 H       
 112 H112           4.5374    14.3309    17.7427 H       
 113 H113          14.9346     5.7910     3.2864 H       
 114 H114          14.1523     6.1317     1.7243 H       
 115 H115           5.3378    12.5152    19.2298 H       
 116 H116           6.8027    13.4588    19.5934 H       
 117 H117          16.3173     6.9267     0.8134 H       
 118 H118          17.0996     6.5860     2.3755 H       
 119 H119          16.4196     4.0631     2.0142 H       
 120 H120           5.2013    15.3060    20.5879 H       
 121 H121          16.8138     3.5332    -0.2855 H       
 122 H122           3.4875    14.1844    21.8267 H       
 123 H123          16.2170     5.7396    -1.6552 H       
 124 H124          17.1538     6.6149    -0.4205 H       
 125 H125           2.9885    11.8990    20.6047 H       
 126 H126           4.7469    11.7418    20.3778 H       
 127 H127          19.2142     5.0995    -1.1680 H       
 128 H128           5.0178    11.5743    22.9355 H       
 129 H129          19.2120     5.1249    -3.5605 H       
 130 H130          15.6010     7.2137    -8.0737 H       
 131 H131          14.6422     7.3002    -6.5765 H       
 132 H132          14.8203     4.8888    -8.4395 H       
 133 H133          13.8615     4.9752    -6.9423 H       
 134 H134          15.9444     5.4124    -5.6336 H       
 135 H135          16.9032     5.3259    -7.1307 H       
 136 H136           3.1796    10.3397    23.8438 H       
 137 H137          16.6962     5.1734    -4.3517 H       
 138 H138          16.4009     6.3420    -3.0419 H       
 139 H139          12.5593     6.8630    -7.8853 H       
 140 H140          13.5181     6.7766    -9.3824 H       
 141 H141           0.9711    11.3304    22.9579 H       
 142 H142           1.7658    11.6234    21.3923 H       
 143 H143          17.6823     7.7939    -6.6133 H       
 144 H144          18.1127     7.9369    -4.2630 H       
 145 H145           2.0516     9.1801    21.0802 H       
 146 H146           1.2570     8.8872    22.6458 H       
 147 H147          11.7786     4.5381    -8.2511 H       
 148 H148          11.3628     5.5769    -9.6354 H       
 149 H149          12.7374     4.4517    -9.7482 H       
 150 H150          -0.3441     8.6200    20.7712 H       
 151 H151          -0.7989     9.9927    21.8091 H       
 152 H152          -0.0042    10.2856    20.2435 H       
@<TRIPOS>BOND
   1    1    4 1
   2    1   10 1
   3    1   11 1
   4    1   16 2
   5    2    5 1
   6    2   12 1
   7    2   13 1
   8    2   17 2
   9    3    6 1
  10    3   14 1
  11    3   15 1
  12    3   18 2
  13    4   25 1
  14    5   23 1
  15    6   24 1
  16    7   26 1
  17    7   70 1
  18    8   27 1
  19    8   71 1
  20    9   28 1
  21    9   72 1
  22   10   29 1
  23   11   73 1
  24   12   74 1
  25   13   75 1
  26   14   76 1
  27   15   77 1
  28   19   32 1
  29   19   30 1
  30   20   31 1
  31   20   35 1
  32   21   32 2
  33   22   35 2
  34   23   24 1
  35   23   26 1
  36   23   78 1
  37   24   27 1
  38   24   79 1
  39   25   26 1
  40   25   28 1
  41   25   80 1
  42   26   81 1
  43   27   28 1
  44   27   82 1
  45   28   83 1
  46   29   30 1
  47   29   84 1
  48   29   85 1
  49   30   31 1
  50   30   86 1
  51   31   87 1
  52   31   88 1
  53   32   33 1
  54   33   34 1
  55   33   89 1
  56   33   90 1
  57   34   37 1
  58   34   91 1
  59   34   92 1
  60   35   36 1
  61   36   38 1
  62   36   93 1
  63   36   94 1
  64   37   40 1
  65   37   95 1
  66   37   96 1
  67   38   39 1
  68   38   97 1
  69   38   98 1
  70   39   41 1
  71   39   99 1
  72   39  100 1
  73   40   43 1
  74   40  101 1
  75   40  102 1
  76   41   42 1
  77   41  103 1
  78   41  104 1
  79   42   44 1
  80   42  105 1
  81   42  106 1
  82   43   45 1
  83   43  107 1
  84   43  108 1
  85   44   46 1
  86   44  109 1
  87   44  110 1
  88   45   47 1
  89   45  111 1
  90   45  112 1
  91   46   48 1
  92   46  113 1
  93   46  114 1
  94   47   50 1
  95   47  115 1
  96   47  116 1
  97   48   49 1
  98   48  117 1
  99   48  118 1
 100   49   51 2
 101   49  119 1
 102   50   52 2
 103   50  120 1
 104   51   53 1
 105   51  121 1
 106   52   54 1
 107   52  122 1
 108   53   55 1
 109   53  123 1
 110   53  124 1
 111   54   56 1
 112   54  125 1
 113   54  126 1
 114   55   57 2
 115   55  127 1
 116   56   61 2
 117   56  128 1
 118   57   62 1
 119   57  129 1
 120   58   59 1
 121   58   60 1
 122   58  130 1
 123   58  131 1
 124   59   63 1
 125   59  132 1
 126   59  133 1
 127   60   65 1
 128   60  134 1
 129   60  135 1
 130   61   64 1
 131   61  136 1
 132   62   66 1
 133   62  137 1
 134   62  138 1
 135   63   68 1
 136   63  139 1
 137   63  140 1
 138   64   67 1
 139   64  141 1
 140   64  142 1
 141   65   66 2
 142   65  143 1
 143   66  144 1
 144   67   69 1
 145   67  145 1
 146   67  146 1
 147   68  147 1
 148   68  148 1
 149   68  149 1
 150   69  150 1
 151   69  151 1
 152   69  152 1

#	End of record

