#	Name: ASD01880299
#	Creating user name:	WinNT
#	Creation time:	15. 06. 2019 19:40

#	Modifying user name:	WinNT
#	Modification time:	15. 06. 2019 19:40

#	Program:	/corina/corina34_cracker 3.40 0067  02.08.2006

@<TRIPOS>MOLECULE
ASD01880299
  38   40    0    0    0
SMALL
NO_CHARGES


@<TRIPOS>ATOM
   1 C1            -0.0166     1.3733     0.0096 C.2     
   2 C2             0.0021    -0.0041     0.0020 C.2     
   3 N3            -1.1605    -0.6945     0.0094 N.am    
   4 C4            -2.3298    -0.0206     0.0242 C.2     
   5 C5            -2.3167     1.3930     0.0317 C.2     
   6 N6            -1.1777     2.0381     0.0298 N.2     
   7 O7            -3.3887    -0.6260     0.0307 O.2     
   8 C8            -1.1511    -2.1595     0.0010 C.3     
   9 C9            -1.1340    -2.6699     1.4188 C.ar    
  10 C10           -2.3234    -2.9117     2.0805 C.ar    
  11 C11           -2.3084    -3.3799     3.3808 C.ar    
  12 C12           -1.1026    -3.6064     4.0203 C.ar    
  13 C13            0.0875    -3.3642     3.3576 C.ar    
  14 C14            0.0712    -2.9015     2.0553 C.ar    
  15 C15            1.2615     2.1260     0.0014 C.ar    
  16 C16            1.2512     3.5199     0.0090 C.ar    
  17 C17            2.4412     4.2169     0.0019 C.ar    
  18 C18            3.6485     3.5317    -0.0128 C.ar    
  19 C19            3.6621     2.1435    -0.0209 C.ar    
  20 C20            2.4755     1.4409    -0.0080 C.ar    
  21 Cl21          -1.0829    -4.1939     5.6538 Cl      
  22 O22            4.8194     4.2212    -0.0199 O.3     
  23 C23            6.0245     3.4533    -0.0350 C.3     
  24 H24            0.9442    -0.5319    -0.0102 H       
  25 H25           -3.2472     1.9411     0.0431 H       
  26 H26           -2.0436    -2.5257    -0.5063 H       
  27 H27           -0.2638    -2.5141    -0.5236 H       
  28 H28           -3.2646    -2.7345     1.5813 H       
  29 H29           -3.2377    -3.5684     3.8978 H       
  30 H30            1.0290    -3.5409     3.8562 H       
  31 H31            1.0001    -2.7124     1.5378 H       
  32 H32            0.3123     4.0535     0.0201 H       
  33 H33            2.4339     5.2968     0.0074 H       
  34 H34            4.6029     1.6133    -0.0327 H       
  35 H35            2.4866     0.3609    -0.0139 H       
  36 H36            6.0466     2.8295    -0.9286 H       
  37 H37            6.8831     4.1247    -0.0392 H       
  38 H38            6.0629     2.8200     0.8513 H       
@<TRIPOS>BOND
   1    1    2 2
   2    1   15 1
   3    1    6 1
   4    2    3 1
   5    2   24 1
   6    3    4 am
   7    3    8 1
   8    4    5 1
   9    4    7 2
  10    5    6 2
  11    5   25 1
  12    8    9 1
  13    8   26 1
  14    8   27 1
  15    9   10 ar
  16    9   14 ar
  17   10   11 ar
  18   10   28 1
  19   11   12 ar
  20   11   29 1
  21   12   13 ar
  22   12   21 1
  23   13   14 ar
  24   13   30 1
  25   14   31 1
  26   15   16 ar
  27   15   20 ar
  28   16   17 ar
  29   16   32 1
  30   17   18 ar
  31   17   33 1
  32   18   19 ar
  33   18   22 1
  34   19   20 ar
  35   19   34 1
  36   20   35 1
  37   22   23 1
  38   23   36 1
  39   23   37 1
  40   23   38 1

#	End of record

