#	Name: ASD03540220
#	Creating user name:	WinNT
#	Creation time:	15. 06. 2019 20:42

#	Modifying user name:	WinNT
#	Modification time:	15. 06. 2019 20:42

#	Program:	/corina/corina34_cracker 3.40 0067  02.08.2006

@<TRIPOS>MOLECULE
ASD03540220
  54   57    0    0    0
SMALL
NO_CHARGES


@<TRIPOS>ATOM
   1 C1            -0.0161     1.3365     0.0094 C.2     
   2 N2             0.0021    -0.0041     0.0020 N.am    
   3 C3             1.1931    -0.7075    -0.0132 C.2     
   4 C4             2.3928    -0.0051    -0.0209 C.2     
   5 C5             2.3194     1.4734    -0.0115 C.2     
   6 N6             1.1110     2.0661     0.0025 N.am    
   7 C7             3.5129    -0.8381    -0.0361 C.2     
   8 C8             3.2256    -2.1516    -0.0404 C.2     
   9 S9             1.4874    -2.3902    -0.0250 S.3     
  10 C10            4.2183    -3.2259    -0.0565 C.2     
  11 O11            5.4048    -2.9577    -0.0671 O.2     
  12 O12            3.8179    -4.5143    -0.0595 O.3     
  13 C13            1.0243     3.5285     0.0113 C.3     
  14 C14            1.0079     4.0298     1.4567 C.3     
  15 C15            0.9174     5.5571     1.4658 C.3     
  16 O16            0.9021     6.0253     2.8159 O.3     
  17 C17            0.8241     7.3692     3.0020 C.ar    
  18 C18            0.8049     7.8929     4.2865 C.ar    
  19 C19            0.7254     9.2594     4.4730 C.ar    
  20 C20            0.6651    10.1050     3.3808 C.ar    
  21 C21            0.6836     9.5856     2.0995 C.ar    
  22 C22            0.7692     8.2202     1.9076 C.ar    
  23 O23            3.3358     2.1426    -0.0175 O.2     
  24 O24           -1.0880     1.9101     0.0175 O.2     
  25 C25           -1.2652    -0.7390     0.0107 C.3     
  26 C26            4.8413    -5.5116    -0.0754 C.3     
  27 C27            4.2094    -6.8798    -0.0765 C.ar    
  28 C28            3.9074    -7.5007    -1.2740 C.ar    
  29 C29            3.3277    -8.7556    -1.2750 C.ar    
  30 C30            3.0505    -9.3898    -0.0785 C.ar    
  31 C31            3.3533    -8.7693     1.1191 C.ar    
  32 C32            3.9370    -7.5162     1.1200 C.ar    
  33 H33            4.5244    -0.4597    -0.0438 H       
  34 H34            1.8863     3.9467    -0.5086 H       
  35 H35            0.1095     3.8412    -0.4921 H       
  36 H36            0.1460     3.6116     1.9766 H       
  37 H37            1.9227     3.7170     1.9601 H       
  38 H38            1.7794     5.9753     0.9460 H       
  39 H39            0.0026     5.8698     0.9624 H       
  40 H40            0.8516     7.2327     5.1400 H       
  41 H41            0.7101     9.6675     5.4728 H       
  42 H42            0.6031    11.1730     3.5286 H       
  43 H43            0.6357    10.2481     1.2480 H       
  44 H44            0.7885     7.8152     0.9066 H       
  45 H45           -2.0950    -0.0322     0.0228 H       
  46 H46           -1.3307    -1.3609    -0.8820 H       
  47 H47           -1.3130    -1.3705     0.8978 H       
  48 H48            5.4510    -5.3923    -0.9710 H       
  49 H49            5.4691    -5.4021     0.8089 H       
  50 H50            4.1240    -7.0051    -2.2089 H       
  51 H51            3.0911    -9.2404    -2.2107 H       
  52 H52            2.5970   -10.3700    -0.0792 H       
  53 H53            3.1364    -9.2647     2.0539 H       
  54 H54            4.1770    -7.0330     2.0556 H       
@<TRIPOS>BOND
   1    1    2 am
   2    1    6 am
   3    1   24 2
   4    2    3 1
   5    2   25 1
   6    3    4 2
   7    3    9 1
   8    4    5 1
   9    4    7 1
  10    5    6 am
  11    5   23 2
  12    6   13 1
  13    7    8 2
  14    7   33 1
  15    8    9 1
  16    8   10 1
  17   10   11 2
  18   10   12 1
  19   12   26 1
  20   13   14 1
  21   13   34 1
  22   13   35 1
  23   14   15 1
  24   14   36 1
  25   14   37 1
  26   15   16 1
  27   15   38 1
  28   15   39 1
  29   16   17 1
  30   17   18 ar
  31   17   22 ar
  32   18   19 ar
  33   18   40 1
  34   19   20 ar
  35   19   41 1
  36   20   21 ar
  37   20   42 1
  38   21   22 ar
  39   21   43 1
  40   22   44 1
  41   25   45 1
  42   25   46 1
  43   25   47 1
  44   26   27 1
  45   26   48 1
  46   26   49 1
  47   27   28 ar
  48   27   32 ar
  49   28   29 ar
  50   28   50 1
  51   29   30 ar
  52   29   51 1
  53   30   31 ar
  54   30   52 1
  55   31   32 ar
  56   31   53 1
  57   32   54 1

#	End of record

