#	Name: ASD02500191
#	Creating user name:	WinNT
#	Creation time:	15. 06. 2019 20:22

#	Modifying user name:	WinNT
#	Modification time:	15. 06. 2019 20:22

#	Program:	/corina/corina34_cracker 3.40 0067  02.08.2006

@<TRIPOS>MOLECULE
ASD02500191
  66   70    0    0    0
SMALL
NO_CHARGES


@<TRIPOS>ATOM
   1 N1            -3.2533     5.7001    -0.3138 N.ar    
   2 C2            -4.3372     6.3763    -0.6075 C.ar    
   3 C3            -5.5088     6.2422     0.1347 C.ar    
   4 C4            -5.5472     5.3878     1.1994 C.ar    
   5 C5            -4.3815     4.6629     1.5117 C.ar    
   6 C6            -4.3451     3.7666     2.5916 C.ar    
   7 C7            -3.1979     3.0843     2.8614 C.ar    
   8 C8            -2.0586     3.2641     2.0800 C.ar    
   9 C9            -2.0587     4.1249     1.0257 C.ar    
  10 C10           -3.2238     4.8474     0.7154 C.ar    
  11 S11           -0.6036     4.3336     0.0543 S.o2    
  12 O12           -0.3744     5.7334    -0.0295 O.2     
  13 O13            0.3553     3.4183     0.5661 O.2     
  14 N14           -0.9620     3.8257    -1.4807 N.am    
  15 C15           -1.2030     2.4790    -1.7289 C.ar    
  16 C16           -0.8438     1.9232    -2.9540 C.ar    
  17 C17           -1.0810     0.5909    -3.2026 C.ar    
  18 C18           -1.6835    -0.2050    -2.2236 C.ar    
  19 C19           -2.0429     0.3559    -0.9948 C.ar    
  20 C20           -1.7978     1.6879    -0.7500 C.ar    
  21 C21           -0.1950     2.7819    -4.0088 C.3     
  22 C22           -1.9397    -1.6337    -2.4871 C.2     
  23 O23           -2.3678    -1.9850    -3.5696 O.2     
  24 N24           -1.6992    -2.5495    -1.5280 N.am    
  25 C25           -1.8623    -3.9835    -1.8054 C.3     
  26 C26           -0.5495    -4.7006    -1.4668 C.3     
  27 N27           -0.1190    -4.2832    -0.1251 N.am    
  28 C28            0.0442    -2.8492     0.1523 C.3     
  29 C29           -1.2632    -2.1324    -0.1880 C.3     
  30 C30            0.1215    -5.1991     0.8340 C.2     
  31 C31            0.6621    -4.7754     2.1396 C.ar    
  32 C32            1.8237    -3.9975     2.2114 C.ar    
  33 C33            2.2897    -3.6264     3.4599 C.ar    
  34 C34            1.6019    -4.0300     4.5905 C.ar    
  35 N35            0.5091    -4.7628     4.4998 N.ar    
  36 C36            0.0180    -5.1398     3.3314 C.ar    
  37 O37           -0.1070    -6.3745     0.6232 O.2     
  38 O38           -1.1104    -5.8873     3.2852 O.3     
  39 C39           -1.7170    -6.2242     4.5344 C.3     
  40 H40           -4.3215     7.0558    -1.4468 H       
  41 H41           -6.3857     6.8137    -0.1316 H       
  42 H42           -6.4467     5.2718     1.7858 H       
  43 H43           -5.2217     3.6194     3.2050 H       
  44 H44           -3.1708     2.3950     3.6924 H       
  45 H45           -1.1608     2.7117     2.3148 H       
  46 H46           -1.0037     4.4677    -2.2066 H       
  47 H47           -0.8025     0.1604    -4.1531 H       
  48 H48           -2.5084    -0.2563    -0.2366 H       
  49 H49           -2.0709     2.1209     0.2009 H       
  50 H50            0.8876     2.7537    -3.8849 H       
  51 H51           -0.4575     2.4040    -4.9970 H       
  52 H52           -0.5457     3.8089    -3.9076 H       
  53 H53           -2.6678    -4.3856    -1.1910 H       
  54 H54           -2.0964    -4.1278    -2.8601 H       
  55 H55           -0.7075    -5.7790    -1.4813 H       
  56 H56            0.2137    -4.4303    -2.1965 H       
  57 H57            0.2783    -2.7049     1.2070 H       
  58 H58            0.8497    -2.4471    -0.4621 H       
  59 H59           -1.1018    -1.0545    -0.1748 H       
  60 H60           -2.0251    -2.3997     0.5443 H       
  61 H61            2.3435    -3.6950     1.3143 H       
  62 H62            3.1832    -3.0267     3.5514 H       
  63 H63            1.9666    -3.7401     5.5648 H       
  64 H64           -1.0120    -6.7952     5.1384 H       
  65 H65           -1.9919    -5.3112     5.0626 H       
  66 H66           -2.6099    -6.8230     4.3549 H       
@<TRIPOS>BOND
   1    1    2 ar
   2    1   10 ar
   3    2    3 ar
   4    2   40 1
   5    3    4 ar
   6    3   41 1
   7    4    5 ar
   8    4   42 1
   9    5    6 ar
  10    5   10 ar
  11    6    7 ar
  12    6   43 1
  13    7    8 ar
  14    7   44 1
  15    8    9 ar
  16    8   45 1
  17    9   10 ar
  18    9   11 1
  19   11   12 2
  20   11   13 2
  21   11   14 am
  22   14   15 1
  23   14   46 1
  24   15   16 ar
  25   15   20 ar
  26   16   17 ar
  27   16   21 1
  28   17   18 ar
  29   17   47 1
  30   18   19 ar
  31   18   22 1
  32   19   20 ar
  33   19   48 1
  34   20   49 1
  35   21   50 1
  36   21   51 1
  37   21   52 1
  38   22   23 2
  39   22   24 am
  40   24   25 1
  41   24   29 1
  42   25   26 1
  43   25   53 1
  44   25   54 1
  45   26   27 1
  46   26   55 1
  47   26   56 1
  48   27   28 1
  49   27   30 am
  50   28   29 1
  51   28   57 1
  52   28   58 1
  53   29   59 1
  54   29   60 1
  55   30   31 1
  56   30   37 2
  57   31   32 ar
  58   31   36 ar
  59   32   33 ar
  60   32   61 1
  61   33   34 ar
  62   33   62 1
  63   34   35 ar
  64   34   63 1
  65   35   36 ar
  66   36   38 1
  67   38   39 1
  68   39   64 1
  69   39   65 1
  70   39   66 1

#	End of record

