#	Name: ASD01915152
#	Creating user name:	WinNT
#	Creation time:	15. 06. 2019 20:04

#	Modifying user name:	WinNT
#	Modification time:	15. 06. 2019 20:04

#	Program:	/corina/corina34_cracker 3.40 0067  02.08.2006

@<TRIPOS>MOLECULE
ASD01915152
  37   40    0    0    0
SMALL
NO_CHARGES


@<TRIPOS>ATOM
   1 C1             0.0644     0.5905    -0.0121 C.ar    
   2 C2             0.3903    -0.7469     0.2243 C.ar    
   3 N3            -0.5750    -1.6476     0.4216 N.ar    
   4 C4            -1.8471    -1.3241     0.4028 C.ar    
   5 C5            -2.2490    -0.0170     0.1745 C.ar    
   6 C6            -1.2974     0.9576    -0.0306 C.ar    
   7 C7             1.2516     1.4181    -0.2031 C.2     
   8 C8             2.4031     0.7565    -0.1180 C.2     
   9 S9             2.1388    -0.9455     0.2047 S.3     
  10 C10            1.1804     2.8744    -0.4702 C.ar    
  11 C11            1.4793     3.7931     0.5335 C.ar    
  12 S12            3.9907     1.4972    -0.3064 S.o2    
  13 O13            3.8541     2.8498     0.1072 O.2     
  14 O14            4.9247     0.5974     0.2744 O.2     
  15 C15            4.3458     1.5380    -2.0318 C.ar    
  16 C16            4.0934     2.6857    -2.7609 C.ar    
  17 C17            4.8803     0.4266    -2.6506 C.ar    
  18 C18            5.1621     0.4593    -4.0176 C.ar    
  19 C19            4.9006     1.6185    -4.7508 C.ar    
  20 C20            4.3702     2.7264    -4.1183 C.ar    
  21 F21            4.1162     3.8494    -4.8252 F       
  22 N22            1.4166     5.0884     0.2982 N.ar    
  23 C23            1.0727     5.5655    -0.8841 C.ar    
  24 C24            0.7613     4.7151    -1.9339 C.ar    
  25 C25            0.8178     3.3477    -1.7358 C.ar    
  26 F26            1.0233     6.9023    -1.0735 F       
  27 C27            5.7173    -0.6910    -4.6651 C.1     
  28 N28            6.1577    -1.6035    -5.1787 N.1     
  29 H29           -2.5923    -2.0883     0.5675 H       
  30 H30           -3.2990     0.2356     0.1617 H       
  31 H31           -1.5888     1.9820    -0.2102 H       
  32 H32            1.7645     3.4407     1.5137 H       
  33 H33            3.6784     3.5539    -2.2705 H       
  34 H34            5.0808    -0.4671    -2.0784 H       
  35 H35            5.1163     1.6503    -5.8086 H       
  36 H36            0.4809     5.1162    -2.8966 H       
  37 H37            0.5806     2.6623    -2.5361 H       
@<TRIPOS>BOND
   1    1    2 ar
   2    1    7 1
   3    1    6 ar
   4    2    3 ar
   5    2    9 1
   6    3    4 ar
   7    4    5 ar
   8    4   29 1
   9    5    6 ar
  10    5   30 1
  11    6   31 1
  12    7    8 2
  13    7   10 1
  14    8    9 1
  15    8   12 1
  16   10   11 ar
  17   10   25 ar
  18   11   22 ar
  19   11   32 1
  20   12   13 2
  21   12   14 2
  22   12   15 1
  23   15   16 ar
  24   15   17 ar
  25   16   20 ar
  26   16   33 1
  27   17   18 ar
  28   17   34 1
  29   18   19 ar
  30   18   27 1
  31   19   20 ar
  32   19   35 1
  33   20   21 1
  34   22   23 ar
  35   23   24 ar
  36   23   26 1
  37   24   25 ar
  38   24   36 1
  39   25   37 1
  40   27   28 3

#	End of record

