#	Name: ASD02038748
#	Creating user name:	WinNT
#	Creation time:	15. 06. 2019 20:17

#	Modifying user name:	WinNT
#	Modification time:	15. 06. 2019 20:17

#	Program:	/corina/corina34_cracker 3.40 0067  02.08.2006

@<TRIPOS>MOLECULE
ASD02038748
  51   53    0    0    0
SMALL
NO_CHARGES


@<TRIPOS>ATOM
   1 C1            -1.2653    -0.8188     0.5061 C.2     
   2 C2            -0.0485    -0.0097     0.3243 C.2     
   3 N3             1.1447    -0.6146     0.1606 N.am    
   4 C4             1.2464    -2.0728     0.2591 C.3     
   5 C5             1.1957    -2.6742    -1.1218 C.ar    
   6 C6             2.3400     0.1860    -0.1157 C.3     
   7 O7            -0.1203     1.2045     0.3218 O.2     
   8 N8            -1.3273    -2.1771     0.5486 N.2     
   9 C9            -2.5708    -2.5398     0.7231 C.2     
  10 N10           -3.3490    -1.4250     0.7985 N.pl3   
  11 C11           -2.5313    -0.3418     0.6680 C.2     
  12 C12            2.3680    -3.0038    -1.7746 C.ar    
  13 C13           -0.0239    -2.9009    -1.7319 C.ar    
  14 C14           -0.0738    -3.4527    -2.9990 C.ar    
  15 C15            1.0954    -3.7787    -3.6581 C.ar    
  16 C16            2.3206    -3.5574    -3.0456 C.ar    
  17 O17            3.4724    -3.8768    -3.6922 O.3     
  18 C18            2.1120     1.0300    -1.3735 C.3     
  19 C19            3.3346     1.9207    -1.6095 C.3     
  20 O20            3.5547     2.7397    -0.4593 O.3     
  21 C21            3.8203     2.0055     0.7376 C.3     
  22 C22            2.6173     1.1181     1.0678 C.3     
  23 C23            3.3478    -4.4372    -5.0008 C.3     
  24 F24            2.6873    -3.5297    -5.8358 F       
  25 F25            4.6204    -4.7046    -5.5168 F       
  26 F26            2.6137    -5.6261    -4.9310 F       
  27 O27           -3.0133    -3.8169     0.8135 O.3     
  28 C28           -4.8011    -1.3948     0.9902 C.3     
  29 C29           -2.0524    -4.8530     0.6013 C.3     
  30 H30            2.1888    -2.3398     0.7373 H       
  31 H31            0.4164    -2.4556     0.8528 H       
  32 H32            3.1936    -0.4742    -0.2693 H       
  33 H33           -2.8307     0.6957     0.6831 H       
  34 H34            3.3204    -2.8302    -1.2959 H       
  35 H35           -0.9393    -2.6470    -1.2181 H       
  36 H36           -1.0279    -3.6292    -3.4734 H       
  37 H37            1.0559    -4.2097    -4.6476 H       
  38 H38            1.9687     0.3733    -2.2317 H       
  39 H39            1.2279     1.6531    -1.2388 H       
  40 H40            4.2108     1.2965    -1.7843 H       
  41 H41            3.1602     2.5545    -2.4790 H       
  42 H42            4.7030     1.3824     0.5934 H       
  43 H43            3.9959     2.7003     1.5589 H       
  44 H44            1.7434     1.7430     1.2519 H       
  45 H45            2.8353     0.5245     1.9557 H       
  46 H46           -5.0262    -1.3620     2.0562 H       
  47 H47           -5.2133    -0.5104     0.5043 H       
  48 H48           -5.2440    -2.2895     0.5526 H       
  49 H49           -1.5696    -4.7084    -0.3652 H       
  50 H50           -1.3019    -4.8198     1.3910 H       
  51 H51           -2.5529    -5.8213     0.6162 H       
@<TRIPOS>BOND
   1    1    2 1
   2    1    8 1
   3    1   11 2
   4    2    3 am
   5    2    7 2
   6    3    4 1
   7    3    6 1
   8    4    5 1
   9    4   30 1
  10    4   31 1
  11    5   12 ar
  12    5   13 ar
  13    6   18 1
  14    6   22 1
  15    6   32 1
  16    8    9 2
  17    9   10 1
  18    9   27 1
  19   10   11 1
  20   10   28 1
  21   11   33 1
  22   12   16 ar
  23   12   34 1
  24   13   14 ar
  25   13   35 1
  26   14   15 ar
  27   14   36 1
  28   15   16 ar
  29   15   37 1
  30   16   17 1
  31   17   23 1
  32   18   19 1
  33   18   38 1
  34   18   39 1
  35   19   20 1
  36   19   40 1
  37   19   41 1
  38   20   21 1
  39   21   22 1
  40   21   42 1
  41   21   43 1
  42   22   44 1
  43   22   45 1
  44   23   24 1
  45   23   25 1
  46   23   26 1
  47   27   29 1
  48   28   46 1
  49   28   47 1
  50   28   48 1
  51   29   49 1
  52   29   50 1
  53   29   51 1

#	End of record

