#	Name: ASD00845136
#	Creating user name:	WinNT
#	Creation time:	15. 06. 2019 18:51

#	Modifying user name:	WinNT
#	Modification time:	15. 06. 2019 18:51

#	Program:	/corina/corina34_cracker 3.40 0067  02.08.2006

@<TRIPOS>MOLECULE
ASD00845136
  87   92    0    0    0
SMALL
NO_CHARGES


@<TRIPOS>ATOM
   1 C1            -0.0167     1.3829     0.0096 C.ar    
   2 C2             0.0021    -0.0041     0.0020 C.ar    
   3 C3             1.2143    -0.6791    -0.0132 C.ar    
   4 C4             2.3989     0.0312    -0.0207 C.ar    
   5 C5             2.3774     1.4139    -0.0126 C.ar    
   6 C6             1.1710     2.0888     0.0021 C.ar    
   7 C7             1.2384    -2.1858    -0.0210 C.3     
   8 C8             0.4954    -2.7222    -1.2260 C.2     
   9 O9             2.6066    -2.6718    -0.0089 O.3     
  10 C10            3.3986    -2.2936    -1.0299 C.2     
  11 N11            4.6795    -2.7098    -1.0791 N.am    
  12 O12            2.9584    -1.5772    -1.9071 O.2     
  13 C13            5.5617    -2.3085    -2.1854 C.3     
  14 C14            6.8552    -1.7378    -1.5941 C.3     
  15 N15            7.4344    -2.7122    -0.6599 N.3     
  16 C16            6.5387    -2.9566     0.4785 C.3     
  17 C17            5.2340    -3.5723    -0.0246 C.3     
  18 C18            8.7611    -2.2783    -0.2021 C.3     
  19 C19            9.2789    -3.2509     0.8612 C.3     
  20 C20           10.6860    -2.8285     1.2899 C.3     
  21 N21           11.5766    -2.8321     0.1223 N.3     
  22 C22           11.1258    -1.8710    -0.8923 C.3     
  23 C23            9.7318    -2.2648    -1.3862 C.3     
  24 H24           12.5307    -2.6494     0.3948 H       
  25 O25            0.7747    -2.5266    -2.3899 O.2     
  26 N26           -0.5308    -3.4561    -0.7646 N.am    
  27 C27            0.4677    -2.7343     1.1584 C.ar    
  28 C28           -0.5778    -3.4853     0.6264 C.ar    
  29 C29            0.6314    -2.6120     2.5149 C.ar    
  30 C30           -0.2617    -3.2488     3.3840 C.ar    
  31 C31           -1.3150    -4.0053     2.8564 C.ar    
  32 C32           -1.4681    -4.1216     1.4914 C.ar    
  33 F33           -2.1826    -4.6239     3.6870 F       
  34 C34           -0.9796    -5.8517    -2.0429 C.ar    
  35 C35            0.1998    -6.0097    -2.7558 C.ar    
  36 C36           -1.6510    -6.9609    -1.5657 C.ar    
  37 C37           -1.1479    -8.2276    -1.7976 C.ar    
  38 C38            0.0277    -8.3878    -2.5080 C.ar    
  39 C39            0.7023    -7.2821    -2.9876 C.ar    
  40 H40            0.4186    -9.3784    -2.6879 H       
  41 O41            0.8617    -4.9202    -3.2267 O.3     
  42 C42            2.0696    -5.1584    -3.9521 C.3     
  43 C43            2.6680    -3.8230    -4.3989 C.3     
  44 C44           -0.0993    -3.1278     4.8016 C.1     
  45 N45            0.0296    -3.0319     5.9262 N.1     
  46 O46           -1.1648    -0.7006     0.0099 O.3     
  47 C47           -2.3744     0.0601     0.0260 C.3     
  48 C48           -3.5740    -0.8895     0.0328 C.3     
  49 F49           -3.5417    -1.6899    -1.1142 F       
  50 F50           -3.5190    -1.7022     1.1702 F       
  51 S51           -1.6173    -4.2372    -1.7401 S.o2    
  52 O52           -2.7976    -4.4103    -0.9681 O.2     
  53 O53           -1.5974    -3.5574    -2.9878 O.2     
  54 H54           -0.9590     1.9106     0.0170 H       
  55 H55            3.3426    -0.4937    -0.0325 H       
  56 H56            3.3047     1.9675    -0.0178 H       
  57 H57            1.1569     3.1687     0.0084 H       
  58 H58            5.7931    -3.1766    -2.8026 H       
  59 H59            5.0682    -1.5472    -2.7896 H       
  60 H60            7.5647    -1.5374    -2.3969 H       
  61 H61            6.6348    -0.8116    -1.0633 H       
  62 H62            7.0187    -3.6402     1.1788 H       
  63 H63            6.3227    -2.0135     0.9804 H       
  64 H64            4.5240    -3.6492     0.7988 H       
  65 H65            5.4310    -4.5624    -0.4357 H       
  66 H66            8.6902    -1.2773     0.2235 H       
  67 H67            8.6145    -3.2330     1.7251 H       
  68 H68            9.3117    -4.2587     0.4474 H       
  69 H69           10.6502    -1.8260     1.7163 H       
  70 H70           11.0632    -3.5273     2.0366 H       
  71 H71           11.0879    -0.8730    -0.4557 H       
  72 H72           11.8224    -1.8743    -1.7306 H       
  73 H73            9.7718    -3.2571    -1.8354 H       
  74 H74            9.3910    -1.5424    -2.1279 H       
  75 H75            1.4477    -2.0262     2.9111 H       
  76 H76           -2.2823    -4.7066     1.0898 H       
  77 H77           -2.5693    -6.8384    -1.0106 H       
  78 H78           -1.6738    -9.0934    -1.4231 H       
  79 H79            1.6200    -7.4078    -3.5430 H       
  80 H80            2.7813    -5.6794    -3.3117 H       
  81 H81            1.8529    -5.7705    -4.8276 H       
  82 H82            1.9562    -3.3021    -5.0393 H       
  83 H83            2.8846    -3.2110    -3.5234 H       
  84 H84            3.5893    -4.0047    -4.9522 H       
  85 H85           -2.3995     0.6837     0.9196 H       
  86 H86           -2.4172     0.6932    -0.8603 H       
  87 H87           -4.4966    -0.3093     0.0451 H       
@<TRIPOS>BOND
   1    1    2 ar
   2    1    6 ar
   3    1   54 1
   4    2    3 ar
   5    2   46 1
   6    3    4 ar
   7    3    7 1
   8    4    5 ar
   9    4   55 1
  10    5    6 ar
  11    5   56 1
  12    6   57 1
  13    7    8 1
  14    7    9 1
  15    7   27 1
  16    8   25 2
  17    8   26 am
  18    9   10 1
  19   10   11 am
  20   10   12 2
  21   11   13 1
  22   11   17 1
  23   13   14 1
  24   13   58 1
  25   13   59 1
  26   14   15 1
  27   14   60 1
  28   14   61 1
  29   15   16 1
  30   15   18 1
  31   16   17 1
  32   16   62 1
  33   16   63 1
  34   17   64 1
  35   17   65 1
  36   18   19 1
  37   18   23 1
  38   18   66 1
  39   19   20 1
  40   19   67 1
  41   19   68 1
  42   20   21 1
  43   20   69 1
  44   20   70 1
  45   21   22 1
  46   21   24 1
  47   22   23 1
  48   22   71 1
  49   22   72 1
  50   23   73 1
  51   23   74 1
  52   26   51 am
  53   26   28 1
  54   27   28 ar
  55   27   29 ar
  56   28   32 ar
  57   29   30 ar
  58   29   75 1
  59   30   31 ar
  60   30   44 1
  61   31   32 ar
  62   31   33 1
  63   32   76 1
  64   34   35 ar
  65   34   36 ar
  66   34   51 1
  67   35   41 1
  68   35   39 ar
  69   36   37 ar
  70   36   77 1
  71   37   38 ar
  72   37   78 1
  73   38   39 ar
  74   38   40 1
  75   39   79 1
  76   41   42 1
  77   42   43 1
  78   42   80 1
  79   42   81 1
  80   43   82 1
  81   43   83 1
  82   43   84 1
  83   44   45 3
  84   46   47 1
  85   47   48 1
  86   47   85 1
  87   47   86 1
  88   48   49 1
  89   48   50 1
  90   48   87 1
  91   51   52 2
  92   51   53 2

#	End of record

