#	Name: ASD01880543
#	Creating user name:	WinNT
#	Creation time:	15. 06. 2019 19:40

#	Modifying user name:	WinNT
#	Modification time:	15. 06. 2019 19:40

#	Program:	/corina/corina34_cracker 3.40 0067  02.08.2006

@<TRIPOS>MOLECULE
ASD01880543
  38   40    0    0    0
SMALL
NO_CHARGES


@<TRIPOS>ATOM
   1 N1            -0.0158     1.3137     0.0093 N.ar    
   2 C2             0.0021    -0.0041     0.0020 C.ar    
   3 N3             1.1316    -0.6829    -0.0120 N.ar    
   4 C4             2.2996    -0.0575    -0.0198 C.ar    
   5 C5             2.3220     1.3293    -0.0130 C.ar    
   6 C6             1.1125     2.0081     0.0022 C.ar    
   7 C7             3.6285     2.0803    -0.0209 C.3     
   8 O8             4.0294     2.3244    -1.3706 O.3     
   9 C9             5.1943     2.9957    -1.5555 C.ar    
  10 C10            5.6432     3.2669    -2.8444 C.ar    
  11 C11            6.8215     3.9464    -3.0301 C.ar    
  12 C12            7.5756     4.3691    -1.9303 C.ar    
  13 C13            7.1199     4.0946    -0.6380 C.ar    
  14 C14            5.9348     3.4168    -0.4574 C.ar    
  15 C15            7.5743     4.3917    -4.2590 C.3     
  16 N16            8.7774     5.0789    -3.7759 N.am    
  17 C17            8.7741     5.0635    -2.4319 C.2     
  18 O18            9.6375     5.5535    -1.7299 O.2     
  19 Cl19           3.7816    -0.9614    -0.0376 Cl      
  20 Cl20           1.0776     3.7437     0.0113 Cl      
  21 C21           10.5340     7.7723    -5.7824 C.3     
  22 C22            9.4533     7.1424    -4.9012 C.3     
  23 C23            9.8121     5.6820    -4.6196 C.3     
  24 H24           -0.9343    -0.5422     0.0081 H       
  25 H25            3.5047     3.0303     0.4988 H       
  26 H26            4.3916     1.4871     0.4831 H       
  27 H27            5.0657     2.9429    -3.6975 H       
  28 H28            7.6948     4.4162     0.2179 H       
  29 H29            5.5830     3.2052     0.5416 H       
  30 H30            7.8530     3.5272    -4.8614 H       
  31 H31            6.9620     5.0764    -4.8459 H       
  32 H32           11.4941     7.7266    -5.2684 H       
  33 H33           10.5993     7.2262    -6.7234 H       
  34 H34           10.2783     8.8127    -5.9830 H       
  35 H35            9.3879     7.6885    -3.9602 H       
  36 H36            8.4932     7.1880    -5.4152 H       
  37 H37           10.7722     5.6364    -4.1056 H       
  38 H38            9.8775     5.1359    -5.5606 H       
@<TRIPOS>BOND
   1    1    2 ar
   2    1    6 ar
   3    2    3 ar
   4    2   24 1
   5    3    4 ar
   6    4    5 ar
   7    4   19 1
   8    5    6 ar
   9    5    7 1
  10    6   20 1
  11    7    8 1
  12    7   25 1
  13    7   26 1
  14    8    9 1
  15    9   10 ar
  16    9   14 ar
  17   10   11 ar
  18   10   27 1
  19   11   12 ar
  20   11   15 1
  21   12   13 ar
  22   12   17 1
  23   13   14 ar
  24   13   28 1
  25   14   29 1
  26   15   16 1
  27   15   30 1
  28   15   31 1
  29   16   17 am
  30   16   23 1
  31   17   18 2
  32   21   22 1
  33   21   32 1
  34   21   33 1
  35   21   34 1
  36   22   23 1
  37   22   35 1
  38   22   36 1
  39   23   37 1
  40   23   38 1

#	End of record

