#	Name: ASD09740105
#	Creating user name:	WinNT
#	Creation time:	15. 06. 2019 21:22

#	Modifying user name:	WinNT
#	Modification time:	15. 06. 2019 21:22

#	Program:	/corina/corina34_cracker 3.40 0067  02.08.2006

@<TRIPOS>MOLECULE
ASD09740105
  43   47    0    0    0
SMALL
NO_CHARGES


@<TRIPOS>ATOM
   1 N1            -0.0144     1.2085     0.0087 N.2     
   2 O2             0.0021    -0.0041     0.0020 O.3     
   3 C3             1.2064     1.6818    -0.0004 C.2     
   4 N4             2.0480     0.6279    -0.0141 N.2     
   5 C5             1.2717    -0.4441    -0.0125 C.2     
   6 C6             1.7130    -1.8449    -0.0235 C.2     
   7 C7             1.5928     3.1139     0.0028 C.ar    
   8 C8             2.9385     3.4773    -0.0085 C.ar    
   9 C9             3.2946     4.8061    -0.0055 C.ar    
  10 C10            2.3137     5.8023     0.0090 C.ar    
  11 C11            0.9752     5.4348     0.0197 C.ar    
  12 C12            0.6125     4.1049     0.0114 C.ar    
  13 C13            0.8931    -2.9186    -0.0214 C.2     
  14 C14            1.5665    -4.1310    -0.0341 C.2     
  15 C15            2.9202    -4.0188    -0.0462 C.2     
  16 S16            3.3872    -2.3780    -0.0489 S.3     
  17 C17            0.8673    -5.4401    -0.0344 C.ar    
  18 C18           -0.1371    -5.6965     0.8966 C.ar    
  19 C19            1.2089    -6.4150    -0.9694 C.ar    
  20 C20            0.5551    -7.6305    -0.9655 C.ar    
  21 C21           -0.4377    -7.8817    -0.0356 C.ar    
  22 C22           -0.7844    -6.9155     0.8915 C.ar    
  23 N23            2.4661     7.1877     0.0147 N.pl3   
  24 C24            1.1541     7.8398     0.0304 C.3     
  25 C25            0.1326     6.6908     0.0342 C.3     
  26 C26            3.8771    -5.1829    -0.0607 C.3     
  27 F27            4.1610    -5.5368    -1.3841 F       
  28 F28            5.0618    -4.8209     0.5895 F       
  29 F29            3.2971    -6.2718     0.5990 F       
  30 H30            3.7029     2.7144    -0.0193 H       
  31 H31            4.3389     5.0816    -0.0139 H       
  32 H32           -0.4320     3.8305     0.0199 H       
  33 H33           -0.1840    -2.8404    -0.0106 H       
  34 H34           -0.4084    -4.9430     1.6211 H       
  35 H35            1.9836    -6.2198    -1.6961 H       
  36 H36            0.8188    -8.3868    -1.6900 H       
  37 H37           -0.9467    -8.8342    -0.0361 H       
  38 H38           -1.5603    -7.1168     1.6153 H       
  39 H39            3.3173     7.6528     0.0093 H       
  40 H40            1.0442     8.4464     0.9294 H       
  41 H41            1.0273     8.4556    -0.8600 H       
  42 H42           -0.4958     6.7376    -0.8552 H       
  43 H43           -0.4789     6.7283     0.9357 H       
@<TRIPOS>BOND
   1    1    2 1
   2    1    3 2
   3    2    5 1
   4    3    4 1
   5    3    7 1
   6    4    5 2
   7    5    6 1
   8    6   13 2
   9    6   16 1
  10    7    8 ar
  11    7   12 ar
  12    8    9 ar
  13    8   30 1
  14    9   10 ar
  15    9   31 1
  16   10   11 ar
  17   10   23 1
  18   11   12 ar
  19   11   25 1
  20   12   32 1
  21   13   14 1
  22   13   33 1
  23   14   15 2
  24   14   17 1
  25   15   16 1
  26   15   26 1
  27   17   18 ar
  28   17   19 ar
  29   18   22 ar
  30   18   34 1
  31   19   20 ar
  32   19   35 1
  33   20   21 ar
  34   20   36 1
  35   21   22 ar
  36   21   37 1
  37   22   38 1
  38   23   24 1
  39   23   39 1
  40   24   25 1
  41   24   40 1
  42   24   41 1
  43   25   42 1
  44   25   43 1
  45   26   27 1
  46   26   28 1
  47   26   29 1

#	End of record

