#	Name: ASD01420120
#	Creating user name:	WinNT
#	Creation time:	15. 06. 2019 19:20

#	Modifying user name:	WinNT
#	Modification time:	15. 06. 2019 19:20

#	Program:	/corina/corina34_cracker 3.40 0067  02.08.2006

@<TRIPOS>MOLECULE
ASD01420120
  65   69    0    0    0
SMALL
NO_CHARGES


@<TRIPOS>ATOM
   1 C1            -0.0144     1.2120     0.0087 C.2     
   2 O2             0.1295     0.0132     0.1547 O.2     
   3 C3             1.0480     3.4384    -0.4754 C.3     
   4 N4             1.0607     2.0009    -0.1867 N.am    
   5 C5             2.4665     1.5858    -0.1507 C.3     
   6 C6             3.3117     2.8043    -0.4244 C.ar    
   7 C7             4.6831     2.9599    -0.5024 C.ar    
   8 C8             5.2276     4.2128    -0.7732 C.ar    
   9 C9             4.3839     5.3057    -0.9645 C.ar    
  10 C10            3.0173     5.1397    -0.8846 C.ar    
  11 C11            2.4799     3.8912    -0.6149 C.ar    
  12 C12            6.6987     4.3835    -0.8572 C.ar    
  13 C13            7.2414     5.6386    -1.1284 C.ar    
  14 C14            8.6089     5.7951    -1.2056 C.ar    
  15 C15            9.4466     4.7025    -1.0131 C.ar    
  16 C16            8.9074     3.4500    -0.7426 C.ar    
  17 C17            7.5407     3.2901    -0.6593 C.ar    
  18 N18           10.8307     4.8631    -1.0921 N.3     
  19 C19           11.5230     3.5881    -0.8580 C.3     
  20 C20           13.0302     3.7898    -1.0314 C.3     
  21 N21           13.4955     4.8188    -0.0911 N.3     
  22 C22           12.8032     6.0938    -0.3253 C.3     
  23 C23           11.2960     5.8921    -0.1519 C.3     
  24 C24           -1.3643     1.8009     0.0394 C.ar    
  25 C25           -2.2646     1.4464     1.0558 C.ar    
  26 C26           -3.5308     2.0048     1.0775 C.ar    
  27 C27           -3.9068     2.9111     0.0968 C.ar    
  28 C28           -3.0152     3.2635    -0.9116 C.ar    
  29 C29           -1.7517     2.7197    -0.9407 C.ar    
  30 C30           -3.4330     4.2490    -1.9725 C.3     
  31 C31           -2.5006     5.4615    -1.9378 C.3     
  32 C32           -3.3523     3.5828    -3.3475 C.3     
  33 O33           -5.1496     3.4559     0.1208 O.3     
  34 O34           -1.8953     0.5593     2.0134 O.3     
  35 H35            0.5097     3.6237    -1.4049 H       
  36 H36            0.5688     3.9753     0.3432 H       
  37 H37            2.7074     1.1823     0.8328 H       
  38 H38            2.6484     0.8307    -0.9154 H       
  39 H39            5.3323     2.1099    -0.3530 H       
  40 H40            4.7996     6.2801    -1.1746 H       
  41 H41            2.3632     5.9863    -1.0324 H       
  42 H42            6.5910     6.4876    -1.2783 H       
  43 H43            9.0297     6.7673    -1.4160 H       
  44 H44            9.5599     2.6023    -0.5937 H       
  45 H45            7.1224     2.3178    -0.4447 H       
  46 H46           11.3165     3.2428     0.1550 H       
  47 H47           11.1706     2.8460    -1.5744 H       
  48 H48           13.5481     2.8521    -0.8298 H       
  49 H49           13.2393     4.1089    -2.0525 H       
  50 H50           13.3800     4.5147     0.8640 H       
  51 H51           13.1556     6.8359     0.3911 H       
  52 H52           13.0097     6.4391    -1.3383 H       
  53 H53           10.7780     6.8298    -0.3534 H       
  54 H54           11.0869     5.5730     0.8692 H       
  55 H55           -4.2266     1.7346     1.8580 H       
  56 H56           -1.0610     2.9992    -1.7225 H       
  57 H57           -4.4568     4.5724    -1.7850 H       
  58 H58           -1.4767     5.1381    -2.1253 H       
  59 H59           -2.8027     6.1743    -2.7051 H       
  60 H60           -2.5580     5.9361    -0.9582 H       
  61 H61           -4.0166     2.7189    -3.3722 H       
  62 H62           -3.6545     4.2955    -4.1148 H       
  63 H63           -2.3285     3.2593    -3.5350 H       
  64 H64           -5.2089     4.2781     0.6264 H       
  65 H65           -1.4867     0.9659     2.7898 H       
@<TRIPOS>BOND
   1    1    2 2
   2    1    4 am
   3    1   24 1
   4    3    4 1
   5    3   11 1
   6    3   35 1
   7    3   36 1
   8    4    5 1
   9    5    6 1
  10    5   37 1
  11    5   38 1
  12    6    7 ar
  13    6   11 ar
  14    7    8 ar
  15    7   39 1
  16    8    9 ar
  17    8   12 1
  18    9   10 ar
  19    9   40 1
  20   10   11 ar
  21   10   41 1
  22   12   13 ar
  23   12   17 ar
  24   13   14 ar
  25   13   42 1
  26   14   15 ar
  27   14   43 1
  28   15   16 ar
  29   15   18 1
  30   16   17 ar
  31   16   44 1
  32   17   45 1
  33   18   19 1
  34   18   23 1
  35   19   20 1
  36   19   46 1
  37   19   47 1
  38   20   21 1
  39   20   48 1
  40   20   49 1
  41   21   22 1
  42   21   50 1
  43   22   23 1
  44   22   51 1
  45   22   52 1
  46   23   53 1
  47   23   54 1
  48   24   25 ar
  49   24   29 ar
  50   25   26 ar
  51   25   34 1
  52   26   27 ar
  53   26   55 1
  54   27   28 ar
  55   27   33 1
  56   28   29 ar
  57   28   30 1
  58   29   56 1
  59   30   31 1
  60   30   32 1
  61   30   57 1
  62   31   58 1
  63   31   59 1
  64   31   60 1
  65   32   61 1
  66   32   62 1
  67   32   63 1
  68   33   64 1
  69   34   65 1

#	End of record

