#	Name: ASD01680093
#	Creating user name:	WinNT
#	Creation time:	15. 06. 2019 19:22

#	Modifying user name:	WinNT
#	Modification time:	15. 06. 2019 19:22

#	Program:	/corina/corina34_cracker 3.40 0067  02.08.2006

@<TRIPOS>MOLECULE
ASD01680093
  86   88    0    0    0
SMALL
NO_CHARGES


@<TRIPOS>ATOM
   1 C1            -1.5064     1.1893    -0.5735 C.2     
   2 C2            -1.3108    -0.3029    -0.6527 C.3     
   3 C3            -1.8130    -0.8120    -2.0053 C.3     
   4 O4            -0.5541     1.9158    -0.4149 O.2     
   5 O5            -2.7379     1.7115    -0.6849 O.3     
   6 N6             0.1131    -0.6169    -0.5108 N.am    
   7 S7             0.7297    -1.0127     0.9743 S.o2    
   8 O8             2.1088    -1.2914     0.7749 O.2     
   9 O9             0.2597    -0.0240     1.8803 O.2     
  10 C10           -0.0192    -2.5311     1.4622 C.ar    
  11 C11           -1.0977    -2.5233     2.3269 C.ar    
  12 C12           -1.6853    -3.7145     2.7098 C.ar    
  13 C13           -1.1947    -4.9135     2.2276 C.ar    
  14 C14           -0.1167    -4.9213     1.3622 C.ar    
  15 C15            0.4681    -3.7298     0.9759 C.ar    
  16 C16            1.6399    -3.7379     0.0284 C.3     
  17 C17           -1.8346    -6.2123     2.6458 C.3     
  18 C18           -1.6326    -1.2161     2.8526 C.3     
  19 N19           -1.5146    -2.2408    -2.1306 N.am    
  20 C20           -1.8677    -2.9076    -3.2474 C.2     
  21 O21           -2.4326    -2.3247    -4.1486 O.2     
  22 C22           -1.5608    -4.3773    -3.3764 C.3     
  23 O23           -2.0299    -4.8529    -4.6396 O.3     
  24 N24           -3.9662    -7.0202    -5.4885 N.am    
  25 C25           -2.9872    -7.1000    -4.3892 C.3     
  26 C26           -1.7871    -6.2431    -4.8639 C.3     
  27 C27           -1.7559    -6.5645    -6.3815 C.3     
  28 C28           -3.2511    -6.7093    -6.7350 C.3     
  29 C29           -3.4403    -7.8466    -7.7409 C.3     
  30 N30           -2.8123    -7.4824    -9.0134 N.pl3   
  31 C31           -2.7651    -8.4031   -10.0537 C.ar    
  32 C32           -3.3162    -9.6688    -9.8798 C.ar    
  33 C33           -3.2622   -10.5750   -10.9232 C.ar    
  34 C34           -2.6567   -10.1837   -12.1102 C.ar    
  35 C35           -2.1304    -8.9120   -12.2136 C.ar    
  36 N36           -2.2010    -8.0660   -11.2031 N.ar    
  37 C37           -5.2958    -7.2071    -5.3714 C.2     
  38 O38           -5.9981    -7.2037    -6.3602 O.2     
  39 C39           -5.9098    -7.4203    -4.0118 C.3     
  40 C40           -7.4215    -7.6056    -4.1583 C.3     
  41 C41           -7.7029    -8.8228    -5.0416 C.3     
  42 C42           -8.0449    -7.8221    -2.7780 C.3     
  43 C43           -8.0283    -6.3572    -4.8019 C.3     
  44 H44           -1.8709    -0.7858     0.1480 H       
  45 H45           -2.8899    -0.6583    -2.0743 H       
  46 H46           -1.3158    -0.2654    -2.8066 H       
  47 H47           -2.8134     2.6739    -0.6277 H       
  48 H48            0.6947    -0.5931    -1.2867 H       
  49 H49           -2.5274    -3.7085     3.3859 H       
  50 H50            0.2668    -5.8581     0.9857 H       
  51 H51            2.5682    -3.6955     0.5982 H       
  52 H52            1.6200    -4.6512    -0.5662 H       
  53 H53            1.5792    -2.8729    -0.6320 H       
  54 H54           -2.6312    -6.4665     1.9466 H       
  55 H55           -1.0848    -7.0034     2.6455 H       
  56 H56           -2.2506    -6.1063     3.6476 H       
  57 H57           -2.1663    -0.6958     2.0573 H       
  58 H58           -2.3138    -1.4093     3.6813 H       
  59 H59           -0.8046    -0.5979     3.1995 H       
  60 H60           -1.0628    -2.7070    -1.4099 H       
  61 H61           -0.4839    -4.5310    -3.3074 H       
  62 H62           -2.0579    -4.9240    -2.5750 H       
  63 H63           -3.4102    -6.6862    -3.4738 H       
  64 H64           -2.6770    -8.1330    -4.2316 H       
  65 H65           -0.8644    -6.5599    -4.3778 H       
  66 H66           -1.3053    -5.7443    -6.9402 H       
  67 H67           -1.2236    -7.4974    -6.5673 H       
  68 H68           -3.6252    -5.7751    -7.1538 H       
  69 H69           -2.9775    -8.7545    -7.3540 H       
  70 H70           -4.5050    -8.0197    -7.8975 H       
  71 H71           -2.4294    -6.5988    -9.1300 H       
  72 H72           -3.7794    -9.9401    -8.9426 H       
  73 H73           -3.6812   -11.5647   -10.8171 H       
  74 H74           -2.5979   -10.8678   -12.9439 H       
  75 H75           -1.6586    -8.6036   -13.1348 H       
  76 H76           -5.4775    -8.3097    -3.5533 H       
  77 H77           -5.7094    -6.5532    -3.3826 H       
  78 H78           -7.2706    -9.7122    -4.5831 H       
  79 H79           -8.7798    -8.9548    -5.1459 H       
  80 H80           -7.2588    -8.6686    -6.0250 H       
  81 H81           -7.8445    -6.9549    -2.1487 H       
  82 H82           -9.1219    -7.9541    -2.8823 H       
  83 H83           -7.6126    -8.7114    -2.3194 H       
  84 H84           -7.5842    -6.2030    -5.7853 H       
  85 H85           -9.1053    -6.4892    -4.9063 H       
  86 H86           -7.8279    -5.4901    -4.1726 H       
@<TRIPOS>BOND
   1    1    2 1
   2    1    4 2
   3    1    5 1
   4    2    3 1
   5    2    6 1
   6    2   44 1
   7    3   19 1
   8    3   45 1
   9    3   46 1
  10    5   47 1
  11    6    7 am
  12    6   48 1
  13    7    8 2
  14    7    9 2
  15    7   10 1
  16   10   11 ar
  17   10   15 ar
  18   11   12 ar
  19   11   18 1
  20   12   13 ar
  21   12   49 1
  22   13   14 ar
  23   13   17 1
  24   14   15 ar
  25   14   50 1
  26   15   16 1
  27   16   51 1
  28   16   52 1
  29   16   53 1
  30   17   54 1
  31   17   55 1
  32   17   56 1
  33   18   57 1
  34   18   58 1
  35   18   59 1
  36   19   20 am
  37   19   60 1
  38   20   21 2
  39   20   22 1
  40   22   23 1
  41   22   61 1
  42   22   62 1
  43   23   26 1
  44   24   25 1
  45   24   28 1
  46   24   37 am
  47   25   26 1
  48   25   63 1
  49   25   64 1
  50   26   27 1
  51   26   65 1
  52   27   28 1
  53   27   66 1
  54   27   67 1
  55   28   29 1
  56   28   68 1
  57   29   30 1
  58   29   69 1
  59   29   70 1
  60   30   31 1
  61   30   71 1
  62   31   32 ar
  63   31   36 ar
  64   32   33 ar
  65   32   72 1
  66   33   34 ar
  67   33   73 1
  68   34   35 ar
  69   34   74 1
  70   35   36 ar
  71   35   75 1
  72   37   38 2
  73   37   39 1
  74   39   40 1
  75   39   76 1
  76   39   77 1
  77   40   41 1
  78   40   42 1
  79   40   43 1
  80   41   78 1
  81   41   79 1
  82   41   80 1
  83   42   81 1
  84   42   82 1
  85   42   83 1
  86   43   84 1
  87   43   85 1
  88   43   86 1

#	End of record

