#	Name: ASD05173006
#	Creating user name:	WinNT
#	Creation time:	15. 06. 2019 20:57

#	Modifying user name:	WinNT
#	Modification time:	15. 06. 2019 20:57

#	Program:	/corina/corina34_cracker 3.40 0067  02.08.2006

@<TRIPOS>MOLECULE
ASD05173006
  39   42    0    0    0
SMALL
NO_CHARGES


@<TRIPOS>ATOM
   1 C1            -2.0857     3.5668     2.0039 C.ar    
   2 C2            -3.4440     3.7925     1.8533 C.ar    
   3 C3            -4.3013     2.7325     1.6698 C.ar    
   4 C4            -3.8129     1.4152     1.6330 C.ar    
   5 C5            -2.4445     1.1920     1.7805 C.ar    
   6 C6            -1.5901     2.2802     1.9618 C.ar    
   7 N7            -4.7264     0.4262     1.4574 N.2     
   8 C8            -4.5940    -0.6060     0.7070 C.2     
   9 C9            -3.3312    -0.8615    -0.0732 C.3     
  10 C10           -2.2016    -1.0468     0.9081 C.2     
  11 N11           -1.8618    -0.0681     1.7487 N.am    
  12 O12           -1.5958    -2.0973     0.9341 O.2     
  13 C13           -5.7063    -1.5660     0.6052 C.ar    
  14 C14           -6.8291    -1.4284     1.4273 C.ar    
  15 C15           -7.8707    -2.3286     1.3317 C.ar    
  16 C16           -7.8114    -3.3695     0.4254 C.ar    
  17 C17           -6.6975    -3.5182    -0.4009 C.ar    
  18 C18           -5.6457    -2.6132    -0.3163 C.ar    
  19 Br19          -0.9085     5.0245     2.2596 Br      
  20 C20           -6.6379    -4.6378    -1.3732 C.ar    
  21 C21           -7.6915    -5.5502    -1.4707 C.ar    
  22 C22           -7.5875    -6.5772    -2.3935 C.ar    
  23 C23           -6.4550    -6.6662    -3.1817 C.ar    
  24 N24           -5.4759    -5.7897    -3.0666 N.ar    
  25 C25           -5.5328    -4.7928    -2.2076 C.ar    
  26 H26           -3.8301     4.8008     1.8804 H       
  27 H27           -5.3596     2.9142     1.5534 H       
  28 H28           -0.5296     2.1125     2.0790 H       
  29 H29           -3.4469    -1.7626    -0.6754 H       
  30 H30           -3.1202    -0.0103    -0.7205 H       
  31 H31           -1.1532    -0.2505     2.3855 H       
  32 H32           -6.8811    -0.6168     2.1380 H       
  33 H33           -8.7361    -2.2191     1.9686 H       
  34 H34           -8.6300    -4.0707     0.3566 H       
  35 H35           -4.7816    -2.7247    -0.9546 H       
  36 H36           -8.5646    -5.4570    -0.8420 H       
  37 H37           -8.3824    -7.3012    -2.4963 H       
  38 H38           -6.3705    -7.4660    -3.9026 H       
  39 H39           -4.7112    -4.0949    -2.1426 H       
@<TRIPOS>BOND
   1    1    2 ar
   2    1   19 1
   3    1    6 ar
   4    2    3 ar
   5    2   26 1
   6    3    4 ar
   7    3   27 1
   8    4    5 ar
   9    4    7 1
  10    5    6 ar
  11    5   11 1
  12    6   28 1
  13    7    8 2
  14    8    9 1
  15    8   13 1
  16    9   10 1
  17    9   29 1
  18    9   30 1
  19   10   11 am
  20   10   12 2
  21   11   31 1
  22   13   14 ar
  23   13   18 ar
  24   14   15 ar
  25   14   32 1
  26   15   16 ar
  27   15   33 1
  28   16   17 ar
  29   16   34 1
  30   17   18 ar
  31   17   20 1
  32   18   35 1
  33   20   21 ar
  34   20   25 ar
  35   21   22 ar
  36   21   36 1
  37   22   23 ar
  38   22   37 1
  39   23   24 ar
  40   23   38 1
  41   24   25 ar
  42   25   39 1

#	End of record

