#	Name: ASD01148788
#	Creating user name:	WinNT
#	Creation time:	15. 06. 2019 19:03

#	Modifying user name:	WinNT
#	Modification time:	15. 06. 2019 19:03

#	Program:	/corina/corina34_cracker 3.40 0067  02.08.2006

@<TRIPOS>MOLECULE
ASD01148788
  60   64    0    0    0
SMALL
NO_CHARGES


@<TRIPOS>ATOM
   1 N1             0.0433     1.3918    -0.2309 N.pl3   
   2 C2            -0.0126     0.0401    -0.1851 C.2     
   3 C3             1.2409    -0.4491     0.1114 C.2     
   4 C4             2.1189     0.7241     0.2538 C.2     
   5 C5             1.3191     1.8275     0.0306 C.2     
   6 C6             1.6248    -1.8604     0.2565 C.2     
   7 O7             2.0098    -2.4881    -0.7108 O.2     
   8 O8             1.5501    -2.4588     1.4621 O.3     
   9 C9            -1.0452     2.2277    -0.5115 C.ar    
  10 C10           -2.1001     2.3214     0.3865 C.ar    
  11 C11           -3.1719     3.1465     0.1070 C.ar    
  12 C12           -3.1953     3.8785    -1.0659 C.ar    
  13 C13           -2.1462     3.7874    -1.9622 C.ar    
  14 C14           -1.0688     2.9688    -1.6855 C.ar    
  15 S15           -4.5649     4.9291    -1.4194 S.o2    
  16 O16           -4.5930     5.0906    -2.8309 O.2     
  17 O17           -5.6628     4.4219    -0.6732 O.2     
  18 N18           -4.2167     6.4187    -0.7851 N.am    
  19 C19           -1.2456    -0.7941    -0.4196 C.3     
  20 C20            1.7605     3.2359     0.0666 C.ar    
  21 C21            1.0984     4.1578     0.8805 C.ar    
  22 C22            1.5160     5.4719     0.9100 C.ar    
  23 C23            2.5894     5.8780     0.1348 C.ar    
  24 C24            3.2501     4.9688    -0.6743 C.ar    
  25 C25            2.8457     3.6507    -0.7087 C.ar    
  26 Cl26           3.1085     7.5340     0.1771 Cl      
  27 O27            7.6328     0.6010     1.2282 O.3     
  28 C28            8.0537     0.3740    -0.1298 C.3     
  29 O29            6.9114    -0.2529    -0.7423 O.3     
  30 C30            5.8298     0.1939    -0.0391 C.ar    
  31 C31            6.2736     0.7196     1.1738 C.ar    
  32 C32            4.4803     0.1947    -0.3396 C.ar    
  33 C33            3.5645     0.7215     0.5720 C.ar    
  34 C34            4.0145     1.2460     1.7836 C.ar    
  35 C35            5.3626     1.2431     2.0786 C.ar    
  36 C36            1.9453    -3.8543     1.5311 C.3     
  37 C37            1.7943    -4.3566     2.9684 C.3     
  38 H38           -2.0827     1.7494     1.3024 H       
  39 H39           -3.9927     3.2198     0.8051 H       
  40 H40           -2.1676     4.3601    -2.8776 H       
  41 H41           -0.2475     2.9018    -2.3837 H       
  42 H42           -4.5744     7.2186    -1.2010 H       
  43 H43           -3.6550     6.4912     0.0024 H       
  44 H44           -1.3229    -1.0383    -1.4791 H       
  45 H45           -1.1779    -1.7139     0.1613 H       
  46 H46           -2.1278    -0.2334    -0.1107 H       
  47 H47            0.2610     3.8424     1.4852 H       
  48 H48            1.0046     6.1858     1.5386 H       
  49 H49            4.0865     5.2917    -1.2764 H       
  50 H50            3.3644     2.9417    -1.3370 H       
  51 H51            8.2822     1.3189    -0.6229 H       
  52 H52            8.9164    -0.2917    -0.1571 H       
  53 H53            4.1353    -0.2119    -1.2788 H       
  54 H54            3.3079     1.6546     2.4908 H       
  55 H55            5.7091     1.6497     3.0172 H       
  56 H56            1.3098    -4.4449     0.8712 H       
  57 H57            2.9849    -3.9534     1.2189 H       
  58 H58            2.0909    -5.4042     3.0202 H       
  59 H59            2.4298    -3.7660     3.6283 H       
  60 H60            0.7547    -4.2575     3.2806 H       
@<TRIPOS>BOND
   1    1    2 1
   2    1    5 1
   3    1    9 1
   4    2    3 2
   5    2   19 1
   6    3    4 1
   7    3    6 1
   8    4    5 2
   9    4   33 1
  10    5   20 1
  11    6    7 2
  12    6    8 1
  13    8   36 1
  14    9   10 ar
  15    9   14 ar
  16   10   11 ar
  17   10   38 1
  18   11   12 ar
  19   11   39 1
  20   12   13 ar
  21   12   15 1
  22   13   14 ar
  23   13   40 1
  24   14   41 1
  25   15   16 2
  26   15   17 2
  27   15   18 am
  28   18   42 1
  29   18   43 1
  30   19   44 1
  31   19   45 1
  32   19   46 1
  33   20   21 ar
  34   20   25 ar
  35   21   22 ar
  36   21   47 1
  37   22   23 ar
  38   22   48 1
  39   23   24 ar
  40   23   26 1
  41   24   25 ar
  42   24   49 1
  43   25   50 1
  44   27   28 1
  45   27   31 1
  46   28   29 1
  47   28   51 1
  48   28   52 1
  49   29   30 1
  50   30   31 ar
  51   30   32 ar
  52   31   35 ar
  53   32   33 ar
  54   32   53 1
  55   33   34 ar
  56   34   35 ar
  57   34   54 1
  58   35   55 1
  59   36   37 1
  60   36   56 1
  61   36   57 1
  62   37   58 1
  63   37   59 1
  64   37   60 1

#	End of record

