#	Name: ASD03082279
#	Creating user name:	WinNT
#	Creation time:	15. 06. 2019 20:27

#	Modifying user name:	WinNT
#	Modification time:	15. 06. 2019 20:27

#	Program:	/corina/corina34_cracker 3.40 0067  02.08.2006

@<TRIPOS>MOLECULE
ASD03082279
  55   59    0    0    0
SMALL
NO_CHARGES


@<TRIPOS>ATOM
   1 N1            -0.7331     1.7872     0.6816 N.am    
   2 N2            -0.9110     0.3943     0.6549 N.2     
   3 C3             0.2470    -0.1350     0.3387 C.2     
   4 N4             1.1450     0.8388     0.1642 N.2     
   5 C5             0.5769     2.0100     0.3658 C.2     
   6 N6             0.5008    -1.4994     0.2061 N.pl3   
   7 C7            -0.4878    -2.4296     0.5381 C.ar    
   8 C8            -0.4889    -3.6848    -0.0554 C.ar    
   9 C9            -1.4710    -4.6043     0.2765 C.ar    
  10 C10           -2.4509    -4.2689     1.2007 C.ar    
  11 C11           -2.4488    -3.0191     1.7901 C.ar    
  12 C12           -1.4679    -2.1016     1.4667 C.ar    
  13 O13           -1.4751    -5.8335    -0.3029 O.3     
  14 C14            1.2377     3.3275     0.2676 C.ar    
  15 C15           -1.6685     2.7174     0.9575 C.2     
  16 C16            2.5690     3.4748     0.6601 C.ar    
  17 C17            3.1874     4.7097     0.5675 C.ar    
  18 C18            2.4831     5.8062     0.0783 C.ar    
  19 C19            1.1531     5.6564    -0.3111 C.ar    
  20 C20            0.5348     4.4296    -0.2237 C.ar    
  21 N21           -2.9516     2.3486     1.1426 N.am    
  22 C22           -3.9684     3.3597     1.4426 C.3     
  23 O23           -1.3551     3.8885     1.0394 O.2     
  24 C24           -5.2180     2.9025     2.1979 C.3     
  25 C25           -5.3080     3.2530     0.7113 C.3     
  26 O26            4.4838     4.8220     0.9692 O.3     
  27 C27            5.1822     6.0038     0.5641 C.3     
  28 C28            4.2593     7.2045     0.8100 C.3     
  29 N29            3.0730     7.0653    -0.0422 N.3     
  30 C30            2.0998     8.1310     0.2320 C.3     
  31 C31           -2.5170    -6.7307     0.0863 C.3     
  32 F32           -3.7588    -6.1653    -0.2228 F       
  33 F33           -2.3715    -7.9406    -0.6009 F       
  34 F34           -2.4409    -6.9645     1.4635 F       
  35 H35            1.3637    -1.8031    -0.1166 H       
  36 H36            0.2741    -3.9439    -0.7745 H       
  37 H37           -3.2163    -4.9857     1.4592 H       
  38 H38           -3.2126    -2.7608     2.5086 H       
  39 H39           -1.4657    -1.1271     1.9324 H       
  40 H40            3.1173     2.6240     1.0369 H       
  41 H41            0.6052     6.5076    -0.6874 H       
  42 H42           -0.4959     4.3212    -0.5275 H       
  43 H43           -3.2017     1.4137     1.0773 H       
  44 H44           -3.5891     4.3591     1.6556 H       
  45 H45           -5.2836     1.8495     2.4715 H       
  46 H46           -5.6610     3.6013     2.9074 H       
  47 H47           -5.8103     4.1824     0.4428 H       
  48 H48           -5.4328     2.4306     0.0069 H       
  49 H49            6.0938     6.1131     1.1515 H       
  50 H50            5.4306     5.9405    -0.4953 H       
  51 H51            3.9572     7.2255     1.8571 H       
  52 H52            4.7838     8.1265     0.5593 H       
  53 H53            2.5389     9.0970    -0.0173 H       
  54 H54            1.2064     7.9714    -0.3717 H       
  55 H55            1.8319     8.1154     1.2884 H       
@<TRIPOS>BOND
   1    1    2 1
   2    1    5 1
   3    1   15 am
   4    2    3 2
   5    3    4 1
   6    3    6 1
   7    4    5 2
   8    5   14 1
   9    6    7 1
  10    6   35 1
  11    7    8 ar
  12    7   12 ar
  13    8    9 ar
  14    8   36 1
  15    9   10 ar
  16    9   13 1
  17   10   11 ar
  18   10   37 1
  19   11   12 ar
  20   11   38 1
  21   12   39 1
  22   13   31 1
  23   14   16 ar
  24   14   20 ar
  25   15   21 am
  26   15   23 2
  27   16   17 ar
  28   16   40 1
  29   17   18 ar
  30   17   26 1
  31   18   19 ar
  32   18   29 1
  33   19   20 ar
  34   19   41 1
  35   20   42 1
  36   21   22 1
  37   21   43 1
  38   22   24 1
  39   22   25 1
  40   22   44 1
  41   24   25 1
  42   24   45 1
  43   24   46 1
  44   25   47 1
  45   25   48 1
  46   26   27 1
  47   27   28 1
  48   27   49 1
  49   27   50 1
  50   28   29 1
  51   28   51 1
  52   28   52 1
  53   29   30 1
  54   30   53 1
  55   30   54 1
  56   30   55 1
  57   31   32 1
  58   31   33 1
  59   31   34 1

#	End of record

