#	Name: ASD03091451
#	Creating user name:	WinNT
#	Creation time:	15. 06. 2019 20:30

#	Modifying user name:	WinNT
#	Modification time:	15. 06. 2019 20:30

#	Program:	/corina/corina34_cracker 3.40 0067  02.08.2006

@<TRIPOS>MOLECULE
ASD03091451
  34   36    0    0    0
SMALL
NO_CHARGES


@<TRIPOS>ATOM
   1 C1            -0.0770     0.0801     0.4796 C.3     
   2 C2             0.5153    -1.3116     0.7105 C.3     
   3 N3             1.4565    -1.2639     1.8367 N.3     
   4 C4             0.7780    -0.8713     3.0784 C.3     
   5 C5             0.1932     0.5337     2.9201 C.3     
   6 C6             1.3255     1.5241     2.6273 C.3     
   7 N7             1.9261     1.1844     1.3302 N.am    
   8 C8             1.0520     1.0642     0.1553 C.3     
   9 C9            -0.7959     0.5422     1.7507 C.3     
  10 C10            3.2546     0.9861     1.2201 C.2     
  11 O11            3.9759     1.1547     2.1833 O.2     
  12 C12            4.0828     0.8068    -2.4450 C.ar    
  13 C13            3.5183     1.2354    -1.2592 C.ar    
  14 C14            3.8355     0.5627    -0.0753 C.ar    
  15 C15            4.7167    -0.5205    -0.1478 C.ar    
  16 C16            5.2353    -0.8810    -1.3764 C.ar    
  17 N17            4.9095    -0.2196    -2.4690 N.ar    
  18 H18           -0.7805     0.0443    -0.3523 H       
  19 H19           -0.2864    -2.0146     0.9368 H       
  20 H20            1.0401    -1.6366    -0.1879 H       
  21 H21            1.9322    -2.1467     1.9481 H       
  22 H22           -0.0249    -1.5768     3.2922 H       
  23 H23            1.4938    -0.8761     3.9005 H       
  24 H24           -0.3164     0.8229     3.8392 H       
  25 H25            0.9246     2.5370     2.5904 H       
  26 H26            2.0818     1.4562     3.4093 H       
  27 H27            1.6281     0.6930    -0.6923 H       
  28 H28            0.6288     2.0391    -0.0866 H       
  29 H29           -1.1794     1.5522     1.6055 H       
  30 H30           -1.6225    -0.1343     1.9680 H       
  31 H31            3.8404     1.3172    -3.3654 H       
  32 H32            2.8420     2.0774    -1.2469 H       
  33 H33            4.9880    -1.0669     0.7434 H       
  34 H34            5.9167    -1.7163    -1.4426 H       
@<TRIPOS>BOND
   1    1    2 1
   2    1    8 1
   3    1    9 1
   4    1   18 1
   5    2    3 1
   6    2   19 1
   7    2   20 1
   8    3    4 1
   9    3   21 1
  10    4    5 1
  11    4   22 1
  12    4   23 1
  13    5    6 1
  14    5    9 1
  15    5   24 1
  16    6    7 1
  17    6   25 1
  18    6   26 1
  19    7    8 1
  20    7   10 am
  21    8   27 1
  22    8   28 1
  23    9   29 1
  24    9   30 1
  25   10   11 2
  26   10   14 1
  27   12   13 ar
  28   12   17 ar
  29   12   31 1
  30   13   14 ar
  31   13   32 1
  32   14   15 ar
  33   15   16 ar
  34   15   33 1
  35   16   17 ar
  36   16   34 1

#	End of record

