#	Name: ASD04640026
#	Creating user name:	WinNT
#	Creation time:	15. 06. 2019 20:52

#	Modifying user name:	WinNT
#	Modification time:	15. 06. 2019 20:52

#	Program:	/corina/corina34_cracker 3.40 0067  02.08.2006

@<TRIPOS>MOLECULE
ASD04640026
  54   58    0    0    0
SMALL
NO_CHARGES


@<TRIPOS>ATOM
   1 C1            -0.0793     1.4959     0.0205 C.ar    
   2 C2            -0.0583    -0.0105     0.0101 C.3     
   3 N3             1.2611    -0.5029    -0.3981 N.3     
   4 C4             2.3120     0.1145     0.4267 C.3     
   5 C5             2.4406     1.5847     0.0276 C.3     
   6 C6             1.3234    -1.9684    -0.3197 C.3     
   7 C7             0.3726    -2.5753    -1.3535 C.3     
   8 C8             0.3787    -4.0972    -1.5112 C.3     
   9 C9            -0.8033    -3.4033    -0.8314 C.3     
  10 C10            0.1538    -4.6628    -2.9149 C.3     
  11 N11            0.3121    -6.1189    -2.8858 N.am    
  12 C12            0.1584    -6.8362    -4.0164 C.2     
  13 C13            0.3183    -8.3063    -3.9871 C.ar    
  14 O14           -0.1117    -6.2750    -5.0602 O.2     
  15 C15            0.0483    -9.0957    -5.1335 C.ar    
  16 C16            0.7434    -8.9591    -2.8372 C.ar    
  17 C17            0.8835   -10.3447    -2.8453 C.ar    
  18 N18            0.6250   -11.0601    -3.9118 N.ar    
  19 C19            0.2174   -10.5002    -5.0535 C.ar    
  20 C20           -0.0500   -11.2855    -6.1901 C.ar    
  21 C21           -0.4640   -10.6887    -7.3407 C.ar    
  22 C22           -0.6284    -9.3069    -7.4149 C.ar    
  23 C23           -0.3799    -8.5150    -6.3345 C.ar    
  24 C24            1.0828     2.2402     0.0314 C.ar    
  25 C25            1.0207     3.6272     0.0452 C.ar    
  26 C26           -0.1952     4.2739     0.0460 C.ar    
  27 C27           -1.3753     3.5273     0.0325 C.ar    
  28 C28           -1.3076     2.1349     0.0247 C.ar    
  29 C29           -2.6461     4.1873     0.0318 C.1     
  30 N30           -3.6542     4.7110     0.0311 N.1     
  31 H31           -0.2869    -0.3803     1.0096 H       
  32 H32           -0.8107    -0.3759    -0.6888 H       
  33 H33            2.0401     0.0434     1.4798 H       
  34 H34            3.2596    -0.3959     0.2548 H       
  35 H35            3.0914     2.0965     0.7366 H       
  36 H36            2.8722     1.6521    -0.9711 H       
  37 H37            2.3415    -2.3002    -0.5235 H       
  38 H38            1.0289    -2.2918     0.6787 H       
  39 H39            0.2088    -1.9771    -2.2498 H       
  40 H40            1.0604    -4.6660    -0.8788 H       
  41 H41           -0.8996    -3.5156     0.2485 H       
  42 H42           -1.7412    -3.3497    -1.3842 H       
  43 H43           -0.8530    -4.4134    -3.2501 H       
  44 H44            0.8825    -4.2317    -3.6014 H       
  45 H45            0.5277    -6.5668    -2.0528 H       
  46 H46            0.9643    -8.3958    -1.9426 H       
  47 H47            1.2150   -10.8437    -1.9467 H       
  48 H48            0.0731   -12.3577    -6.1495 H       
  49 H49           -0.6681   -11.2956    -8.2104 H       
  50 H50           -0.9578    -8.8582    -8.3404 H       
  51 H51           -0.5115    -7.4452    -6.4037 H       
  52 H52            1.9338     4.2039     0.0557 H       
  53 H53           -0.2358     5.3531     0.0573 H       
  54 H54           -2.2170     1.5523     0.0140 H       
@<TRIPOS>BOND
   1    1    2 1
   2    1   24 ar
   3    1   28 ar
   4    2    3 1
   5    2   31 1
   6    2   32 1
   7    3    4 1
   8    3    6 1
   9    4    5 1
  10    4   33 1
  11    4   34 1
  12    5   24 1
  13    5   35 1
  14    5   36 1
  15    6    7 1
  16    6   37 1
  17    6   38 1
  18    7    8 1
  19    7    9 1
  20    7   39 1
  21    8   10 1
  22    8    9 1
  23    8   40 1
  24    9   41 1
  25    9   42 1
  26   10   11 1
  27   10   43 1
  28   10   44 1
  29   11   12 am
  30   11   45 1
  31   12   13 1
  32   12   14 2
  33   13   16 ar
  34   13   15 ar
  35   15   19 ar
  36   15   23 ar
  37   16   17 ar
  38   16   46 1
  39   17   18 ar
  40   17   47 1
  41   18   19 ar
  42   19   20 ar
  43   20   21 ar
  44   20   48 1
  45   21   22 ar
  46   21   49 1
  47   22   23 ar
  48   22   50 1
  49   23   51 1
  50   24   25 ar
  51   25   26 ar
  52   25   52 1
  53   26   27 ar
  54   26   53 1
  55   27   28 ar
  56   27   29 1
  57   28   54 1
  58   29   30 3

#	End of record

