#	Name: ASD04940007
#	Creating user name:	WinNT
#	Creation time:	15. 06. 2019 20:56

#	Modifying user name:	WinNT
#	Modification time:	15. 06. 2019 20:56

#	Program:	/corina/corina34_cracker 3.40 0067  02.08.2006

@<TRIPOS>MOLECULE
ASD04940007
  58   61    0    0    0
SMALL
NO_CHARGES


@<TRIPOS>ATOM
   1 C1            -0.0167     1.3781     0.0096 C.ar    
   2 C2             0.0021    -0.0041     0.0020 C.ar    
   3 C3             1.2148    -0.6865    -0.0132 C.ar    
   4 C4             2.4071     0.0032    -0.0209 C.ar    
   5 C5             2.4074     1.3949    -0.0130 C.ar    
   6 C6             1.1845     2.0837     0.0019 C.ar    
   7 N7             3.4246     2.3311    -0.0176 N.pl3   
   8 C8             2.9124     3.5923    -0.0059 C.2     
   9 C9             1.5210     3.5198     0.0069 C.2     
  10 C10            3.7042     4.8373    -0.0067 C.ar    
  11 C11            4.7932     4.9760    -0.8710 C.ar    
  12 C12            5.5285     6.1428    -0.8666 C.ar    
  13 C13            5.1903     7.1745    -0.0086 C.ar    
  14 C14            4.1132     7.0440     0.8505 C.ar    
  15 C15            3.3651     5.8854     0.8527 C.ar    
  16 C16            0.6149     4.6035     0.0209 C.2     
  17 O17            1.0324     5.7441     0.0230 O.2     
  18 C18           -0.8696     4.3444     0.0330 C.3     
  19 N19           -1.5900     5.6245     0.0463 N.3     
  20 C20           -3.0273     5.4221    -0.1798 C.3     
  21 C21           -3.6932     6.7553    -0.4041 C.2     
  22 N22           -5.0199     6.8159    -0.6336 N.am    
  23 C23           -1.3515     6.3498     1.3013 C.3     
  24 C24           -5.6922     8.1059    -0.8553 C.3     
  25 C25           -6.5340     7.9992    -2.1320 C.3     
  26 O26           -7.3793     6.8496    -2.0438 O.3     
  27 C27           -6.6735     5.6095    -1.9559 C.3     
  28 C28           -5.8378     5.5934    -0.6758 C.3     
  29 O29           -3.0352     7.7738    -0.3781 O.2     
  30 O30           -1.1670    -0.6984     0.0099 O.3     
  31 C31           -1.0746    -2.1244     0.0013 C.3     
  32 H32           -0.9576     1.9082     0.0170 H       
  33 H33            1.2212    -1.7665    -0.0187 H       
  34 H34            3.3425    -0.5365    -0.0327 H       
  35 H35            4.3711     2.1189    -0.0278 H       
  36 H36            5.0588     4.1713    -1.5406 H       
  37 H37            6.3706     6.2514    -1.5341 H       
  38 H38            5.7698     8.0858    -0.0092 H       
  39 H39            3.8552     7.8532     1.5177 H       
  40 H40            2.5221     5.7866     1.5205 H       
  41 H41           -1.1473     3.7804    -0.8574 H       
  42 H42           -1.1311     3.7711     0.9224 H       
  43 H43           -3.1718     4.7917    -1.0571 H       
  44 H44           -3.4677     4.9382     0.6919 H       
  45 H45           -0.2851     6.5478     1.4096 H       
  46 H46           -1.8964     7.2937     1.2847 H       
  47 H47           -1.6961     5.7462     2.1409 H       
  48 H48           -6.3383     8.3336    -0.0075 H       
  49 H49           -4.9471     8.8929    -0.9716 H       
  50 H50           -7.1467     8.8942    -2.2400 H       
  51 H51           -5.8756     7.9015    -2.9952 H       
  52 H52           -7.3865     4.7853    -1.9372 H       
  53 H53           -6.0155     5.5032    -2.8184 H       
  54 H54           -5.1892     4.7174    -0.6732 H       
  55 H55           -6.4989     5.5638     0.1904 H       
  56 H56           -2.0766    -2.5534     0.0090 H       
  57 H57           -0.5473    -2.4489    -0.8957 H       
  58 H58           -0.5296    -2.4585     0.8842 H       
@<TRIPOS>BOND
   1    1    2 ar
   2    1    6 ar
   3    1   32 1
   4    2    3 ar
   5    2   30 1
   6    3    4 ar
   7    3   33 1
   8    4    5 ar
   9    4   34 1
  10    5    7 1
  11    5    6 ar
  12    6    9 1
  13    7    8 1
  14    7   35 1
  15    8    9 2
  16    8   10 1
  17    9   16 1
  18   10   11 ar
  19   10   15 ar
  20   11   12 ar
  21   11   36 1
  22   12   13 ar
  23   12   37 1
  24   13   14 ar
  25   13   38 1
  26   14   15 ar
  27   14   39 1
  28   15   40 1
  29   16   17 2
  30   16   18 1
  31   18   19 1
  32   18   41 1
  33   18   42 1
  34   19   20 1
  35   19   23 1
  36   20   21 1
  37   20   43 1
  38   20   44 1
  39   21   22 am
  40   21   29 2
  41   22   24 1
  42   22   28 1
  43   23   45 1
  44   23   46 1
  45   23   47 1
  46   24   25 1
  47   24   48 1
  48   24   49 1
  49   25   26 1
  50   25   50 1
  51   25   51 1
  52   26   27 1
  53   27   28 1
  54   27   52 1
  55   27   53 1
  56   28   54 1
  57   28   55 1
  58   30   31 1
  59   31   56 1
  60   31   57 1
  61   31   58 1

#	End of record

