#	Name: ASD01870179
#	Creating user name:	WinNT
#	Creation time:	15. 06. 2019 19:38

#	Modifying user name:	WinNT
#	Modification time:	15. 06. 2019 19:38

#	Program:	/corina/corina34_cracker 3.40 0067  02.08.2006

@<TRIPOS>MOLECULE
ASD01870179
  56   60    0    0    0
SMALL
NO_CHARGES


@<TRIPOS>ATOM
   1 C1             0.2539     1.6445     0.3508 C.ar    
   2 C2             0.1740     0.2530     0.3434 C.ar    
   3 C3             1.3106    -0.4943     0.2196 C.ar    
   4 C4             2.5405     0.1798     0.1023 C.ar    
   5 C5             2.5502     1.5980     0.1170 C.ar    
   6 N6             1.4004     2.2693     0.2413 N.ar    
   7 C7             3.7493    -0.5251    -0.0279 C.ar    
   8 C8             4.9232     0.1476    -0.1392 C.ar    
   9 C9             4.9522     1.5553    -0.1265 C.ar    
  10 C10            3.7731     2.2710     0.0003 C.ar    
  11 C11            6.0694     2.5167    -0.2290 C.2     
  12 N12            5.6070     3.7772    -0.1683 N.am    
  13 C13            4.1477     3.7316    -0.0214 C.3     
  14 C14            6.4226     4.9922    -0.2367 C.3     
  15 C15            7.1757     5.0266    -1.5681 C.3     
  16 C16            8.0276     6.2955    -1.6396 C.3     
  17 C17            9.0318     6.3013    -0.4853 C.3     
  18 C18            8.2787     6.2669     0.8461 C.3     
  19 C19            7.4269     4.9980     0.9176 C.3     
  20 C20            3.7425    -2.0320    -0.0434 C.3     
  21 C21            3.6639    -2.5564     1.3918 C.3     
  22 C22            3.5142    -4.0825     1.3745 C.3     
  23 C23            3.2552    -4.5595     2.8057 C.3     
  24 C24            4.2595    -3.9458     3.7384 C.2     
  25 N25            4.9935    -2.8761     3.4297 N.am    
  26 C26            4.9488    -2.1989     2.1398 C.3     
  27 O27            7.2395     2.2112    -0.3509 O.2     
  28 O28            4.4109    -4.4499     4.8311 O.2     
  29 O29            6.2378     5.0212    -2.6462 O.3     
  30 H30           -0.6534     2.2229     0.4448 H       
  31 H31           -0.7856    -0.2338     0.4358 H       
  32 H32            1.2668    -1.5734     0.2124 H       
  33 H33            5.8464    -0.4038    -0.2384 H       
  34 H34            3.6702     4.2285    -0.8659 H       
  35 H35            3.8498     4.2088     0.9123 H       
  36 H36            5.7775     5.8676    -0.1615 H       
  37 H37            7.8208     4.1512    -1.6433 H       
  38 H38            8.5641     6.3200    -2.5881 H       
  39 H39            7.3825     7.1709    -1.5643 H       
  40 H40            9.6769     5.4259    -0.5605 H       
  41 H41            9.6387     7.2053    -0.5362 H       
  42 H42            8.9941     6.2711     1.6684 H       
  43 H43            7.6336     7.1423     0.9213 H       
  44 H44            6.8903     4.9735     1.8661 H       
  45 H45            8.0719     4.1226     0.8423 H       
  46 H46            2.8793    -2.3856    -0.6072 H       
  47 H47            4.6568    -2.3946    -0.5131 H       
  48 H48            2.8073    -2.1107     1.8976 H       
  49 H49            2.6753    -4.3617     0.7371 H       
  50 H50            4.4301    -4.5367     0.9963 H       
  51 H51            2.2510    -4.2641     3.1096 H       
  52 H52            3.3396    -5.6454     2.8462 H       
  53 H53            5.5948    -2.5268     4.1060 H       
  54 H54            5.8092    -2.5026     1.5435 H       
  55 H55            4.9860    -1.1210     2.2974 H       
  56 H56            6.6459     5.0419    -3.5226 H       
@<TRIPOS>BOND
   1    1    2 ar
   2    1    6 ar
   3    1   30 1
   4    2    3 ar
   5    2   31 1
   6    3    4 ar
   7    3   32 1
   8    4    5 ar
   9    4    7 ar
  10    5    6 ar
  11    5   10 ar
  12    7    8 ar
  13    7   20 1
  14    8    9 ar
  15    8   33 1
  16    9   10 ar
  17    9   11 1
  18   10   13 1
  19   11   12 am
  20   11   27 2
  21   12   13 1
  22   12   14 1
  23   13   34 1
  24   13   35 1
  25   14   15 1
  26   14   19 1
  27   14   36 1
  28   15   16 1
  29   15   29 1
  30   15   37 1
  31   16   17 1
  32   16   38 1
  33   16   39 1
  34   17   18 1
  35   17   40 1
  36   17   41 1
  37   18   19 1
  38   18   42 1
  39   18   43 1
  40   19   44 1
  41   19   45 1
  42   20   21 1
  43   20   46 1
  44   20   47 1
  45   21   22 1
  46   21   26 1
  47   21   48 1
  48   22   23 1
  49   22   49 1
  50   22   50 1
  51   23   24 1
  52   23   51 1
  53   23   52 1
  54   24   25 am
  55   24   28 2
  56   25   26 1
  57   25   53 1
  58   26   54 1
  59   26   55 1
  60   29   56 1

#	End of record

