#	Name: ASD04882550
#	Creating user name:	WinNT
#	Creation time:	15. 06. 2019 20:55

#	Modifying user name:	WinNT
#	Modification time:	15. 06. 2019 20:55

#	Program:	/corina/corina34_cracker 3.40 0067  02.08.2006

@<TRIPOS>MOLECULE
ASD04882550
  87   91    0    0    0
SMALL
NO_CHARGES


@<TRIPOS>ATOM
   1 C1            -0.1805     1.8941     0.2177 C.ar    
   2 C2            -0.3133     0.5028     0.2179 C.ar    
   3 C3            -1.5769    -0.0766     0.2330 C.ar    
   4 C4            -2.7020     0.7176     0.2481 C.ar    
   5 C5            -2.5762     2.1096     0.2484 C.ar    
   6 C6            -1.3069     2.6947     0.2381 C.ar    
   7 N7             0.8215    -0.3041     0.2027 N.3     
   8 C8             0.8683    -1.1695     1.3894 C.3     
   9 C9             0.8840    -1.1016    -1.0301 C.3     
  10 C10            2.1819    -1.9127    -1.0444 C.3     
  11 N11            2.2287    -2.7782     0.1424 N.3     
  12 C12            2.1662    -1.9806     1.3751 C.3     
  13 C13           -3.7816     2.9601     0.2646 C.2     
  14 O14           -3.6712     4.1711     0.2649 O.2     
  15 N15           -5.0050     2.3949     0.2792 N.am    
  16 N16            1.0935     2.4767     0.2025 N.am    
  17 C17            3.3670    -3.5875     0.1270 C.ar    
  18 C18            1.2766     3.7102     0.7140 C.2     
  19 C19            2.6227     4.2888     0.7686 C.2     
  20 C20            3.2378    -4.9704     0.1273 C.ar    
  21 O21            0.3244     4.3437     1.1305 O.2     
  22 C22            4.3655    -5.7678     0.1116 C.ar    
  23 C23            5.6219    -5.1908     0.0962 C.ar    
  24 C24            5.7542    -3.8141     0.0959 C.ar    
  25 C25            4.6309    -3.0111     0.1057 C.ar    
  26 C26            2.9471     5.5214     1.2589 C.2     
  27 C27            4.3366     5.6597     1.1159 C.2     
  28 C28            4.7937     4.5201     0.5518 C.2     
  29 O29            3.7588     3.6945     0.3487 O.3     
  30 C30            6.2319     4.2247     0.2119 C.3     
  31 C31            1.8688    -5.6002     0.1451 C.3     
  32 C32           -6.2019     3.2395     0.2954 C.3     
  33 C33           -7.4307     2.3710     0.2128 C.ar    
  34 C34           -7.4410     1.1288     0.8187 C.ar    
  35 C35           -8.5683     0.3320     0.7430 C.ar    
  36 C36           -9.6852     0.7778     0.0616 C.ar    
  37 C37           -9.6752     2.0208    -0.5437 C.ar    
  38 C38           -8.5498     2.8191    -0.4643 C.ar    
  39 C39           -8.5792    -1.0228     1.4028 C.3     
  40 N40           -9.0651    -0.8914     2.7829 N.3     
  41 C41          -10.4749    -0.4793     2.8076 C.3     
  42 C42           -8.8683    -2.1401     3.5313 C.3     
  43 C43           -6.2366     4.0502     1.5925 C.3     
  44 C44           -6.1697     4.1926    -0.9010 C.3     
  45 H45           -1.6765    -1.1520     0.2324 H       
  46 H46           -3.6822     0.2644     0.2594 H       
  47 H47           -1.2067     3.7701     0.2387 H       
  48 H48            0.8334    -0.5552     2.2891 H       
  49 H49            0.0153    -1.8480     1.3786 H       
  50 H50            0.0312    -1.7794    -1.0684 H       
  51 H51            0.8605    -0.4378    -1.8943 H       
  52 H52            2.2168    -2.5271    -1.9441 H       
  53 H53            3.0349    -1.2342    -1.0336 H       
  54 H54            3.0190    -1.3029     1.4134 H       
  55 H55            2.1897    -2.6445     2.2393 H       
  56 H56           -5.0930     1.4289     0.2790 H       
  57 H57            1.8438     1.9924    -0.1760 H       
  58 H58            4.2658    -6.8432     0.1118 H       
  59 H59            6.5021    -5.8166     0.0847 H       
  60 H60            6.7370    -3.3666     0.0842 H       
  61 H61            4.7348    -1.9361     0.1052 H       
  62 H62            2.2663     6.2491     1.6754 H       
  63 H63            4.9289     6.5160     1.4028 H       
  64 H64            6.7156     3.7463     1.0635 H       
  65 H65            6.2721     3.5587    -0.6501 H       
  66 H66            6.7481     5.1553    -0.0236 H       
  67 H67            1.5249    -5.7509    -0.8782 H       
  68 H68            1.9176    -6.5611     0.6572 H       
  69 H69            1.1738    -4.9440     0.6691 H       
  70 H70           -6.5683     0.7805     1.3511 H       
  71 H71          -10.5655     0.1551     0.0018 H       
  72 H72          -10.5478     2.3690    -1.0764 H       
  73 H73           -8.5420     3.7901    -0.9371 H       
  74 H74           -9.2370    -1.6918     0.8481 H       
  75 H75           -7.5686    -1.4312     1.4107 H       
  76 H76          -11.0806    -1.2255     2.2934 H       
  77 H77          -10.8091    -0.3897     3.8413 H       
  78 H78          -10.5810     0.4829     2.3067 H       
  79 H79           -7.8065    -2.3852     3.5565 H       
  80 H80           -9.2366    -2.0151     4.5496 H       
  81 H81           -9.4159    -2.9463     3.0433 H       
  82 H82           -5.3478     4.6784     1.6522 H       
  83 H83           -7.1272     4.6786     1.6045 H       
  84 H84           -6.2595     3.3712     2.4448 H       
  85 H85           -6.1450     3.6151    -1.8251 H       
  86 H86           -7.0603     4.8210    -0.8890 H       
  87 H87           -5.2810     4.8208    -0.8413 H       
@<TRIPOS>BOND
   1    1    2 ar
   2    1   16 1
   3    1    6 ar
   4    2    3 ar
   5    2    7 1
   6    3    4 ar
   7    3   45 1
   8    4    5 ar
   9    4   46 1
  10    5    6 ar
  11    5   13 1
  12    6   47 1
  13    7    8 1
  14    7    9 1
  15    8   12 1
  16    8   48 1
  17    8   49 1
  18    9   10 1
  19    9   50 1
  20    9   51 1
  21   10   11 1
  22   10   52 1
  23   10   53 1
  24   11   12 1
  25   11   17 1
  26   12   54 1
  27   12   55 1
  28   13   14 2
  29   13   15 am
  30   15   32 1
  31   15   56 1
  32   16   18 am
  33   16   57 1
  34   17   20 ar
  35   17   25 ar
  36   18   19 1
  37   18   21 2
  38   19   26 2
  39   19   29 1
  40   20   22 ar
  41   20   31 1
  42   22   23 ar
  43   22   58 1
  44   23   24 ar
  45   23   59 1
  46   24   25 ar
  47   24   60 1
  48   25   61 1
  49   26   27 1
  50   26   62 1
  51   27   28 2
  52   27   63 1
  53   28   29 1
  54   28   30 1
  55   30   64 1
  56   30   65 1
  57   30   66 1
  58   31   67 1
  59   31   68 1
  60   31   69 1
  61   32   33 1
  62   32   43 1
  63   32   44 1
  64   33   34 ar
  65   33   38 ar
  66   34   35 ar
  67   34   70 1
  68   35   36 ar
  69   35   39 1
  70   36   37 ar
  71   36   71 1
  72   37   38 ar
  73   37   72 1
  74   38   73 1
  75   39   40 1
  76   39   74 1
  77   39   75 1
  78   40   41 1
  79   40   42 1
  80   41   76 1
  81   41   77 1
  82   41   78 1
  83   42   79 1
  84   42   80 1
  85   42   81 1
  86   43   82 1
  87   43   83 1
  88   43   84 1
  89   44   85 1
  90   44   86 1
  91   44   87 1

#	End of record

