#	Name: ASD01884984
#	Creating user name:	WinNT
#	Creation time:	15. 06. 2019 19:49

#	Modifying user name:	WinNT
#	Modification time:	15. 06. 2019 19:49

#	Program:	/corina/corina34_cracker 3.40 0067  02.08.2006

@<TRIPOS>MOLECULE
ASD01884984
  40   43    0    0    0
SMALL
NO_CHARGES


@<TRIPOS>ATOM
   1 N1            -0.0168     1.3859     0.0097 N.pl3   
   2 C2             0.0021    -0.0041     0.0020 C.ar    
   3 C3            -1.2001    -0.7065     0.0040 C.ar    
   4 C4            -1.1756    -2.0863    -0.0036 C.ar    
   5 C5             0.0714    -2.7310    -0.0131 C.ar    
   6 C6             1.2339    -1.9565    -0.0145 C.ar    
   7 N7             1.1636    -0.6410    -0.0125 N.ar    
   8 C8             0.1505    -4.1608    -0.0208 C.1     
   9 C9             0.2153    -5.3329    -0.0271 C.1     
  10 C10            0.2944    -6.7627    -0.0348 C.2     
  11 C11           -0.7643    -7.6494    -0.0401 C.2     
  12 N12           -0.2729    -8.8848    -0.0465 N.2     
  13 C13            1.0548    -8.8413    -0.0457 C.2     
  14 N14            1.9733    -9.8180    -0.0505 N.2     
  15 C15            3.2554    -9.5437    -0.0484 C.2     
  16 C16            3.6956    -8.2028    -0.0405 C.2     
  17 C17            2.7657    -7.1997    -0.0355 C.2     
  18 N18            1.4433    -7.5263    -0.0444 N.pl3   
  19 C19            5.1455    -7.8859    -0.0370 C.ar    
  20 C20            5.7199    -7.2278    -1.1225 C.ar    
  21 C21            7.0687    -6.9351    -1.1139 C.ar    
  22 C22            7.8500    -7.2943    -0.0304 C.ar    
  23 C23            7.2849    -7.9478     1.0499 C.ar    
  24 C24            5.9360    -8.2402     1.0543 C.ar    
  25 C25            9.3223    -6.9730    -0.0271 C.3     
  26 F26            9.5230    -5.7113     0.5430 F       
  27 F27           10.0083    -7.9367     0.7198 F       
  28 F28            9.8025    -6.9726    -1.3411 F       
  29 H29            0.8166     1.8823     0.0044 H       
  30 H30           -0.8633     1.8595     0.0163 H       
  31 H31           -2.1416    -0.1773     0.0118 H       
  32 H32           -2.0931    -2.6561    -0.0019 H       
  33 H33            2.1993    -2.4406    -0.0215 H       
  34 H34           -1.8114    -7.3848    -0.0385 H       
  35 H35            3.9773   -10.3469    -0.0524 H       
  36 H36            3.0751    -6.1650    -0.0294 H       
  37 H37            5.1110    -6.9475    -1.9693 H       
  38 H38            7.5150    -6.4251    -1.9547 H       
  39 H39            7.8995    -8.2260     1.8933 H       
  40 H40            5.4950    -8.7465     1.9001 H       
@<TRIPOS>BOND
   1    1    2 1
   2    1   29 1
   3    1   30 1
   4    2    7 ar
   5    2    3 ar
   6    3    4 ar
   7    3   31 1
   8    4    5 ar
   9    4   32 1
  10    5    6 ar
  11    5    8 1
  12    6    7 ar
  13    6   33 1
  14    8    9 3
  15    9   10 1
  16   10   18 1
  17   10   11 2
  18   11   12 1
  19   11   34 1
  20   12   13 2
  21   13   18 1
  22   13   14 1
  23   14   15 2
  24   15   16 1
  25   15   35 1
  26   16   17 2
  27   16   19 1
  28   17   18 1
  29   17   36 1
  30   19   24 ar
  31   19   20 ar
  32   20   21 ar
  33   20   37 1
  34   21   22 ar
  35   21   38 1
  36   22   23 ar
  37   22   25 1
  38   23   24 ar
  39   23   39 1
  40   24   40 1
  41   25   26 1
  42   25   27 1
  43   25   28 1

#	End of record

