#	Name: ASD04490014
#	Creating user name:	WinNT
#	Creation time:	15. 06. 2019 20:49

#	Modifying user name:	WinNT
#	Modification time:	15. 06. 2019 20:49

#	Program:	/corina/corina34_cracker 3.40 0067  02.08.2006

@<TRIPOS>MOLECULE
ASD04490014
  38   39    0    0    0
SMALL
NO_CHARGES


@<TRIPOS>ATOM
   1 C1            -0.0184     1.5028     0.0103 C.2     
   2 C2             0.0021    -0.0041     0.0020 C.3     
   3 C3             1.4513    -0.4944    -0.0145 C.3     
   4 O4             1.0197     2.1211     0.0037 O.2     
   5 O5            -1.1898     2.1580     0.0194 O.3     
   6 O6             1.4939    -4.0895    -0.7180 O.3     
   7 C7             1.4729    -2.7998    -1.0984 C.2     
   8 C8             1.4717    -2.0012    -0.0227 C.2     
   9 C9             1.4944    -2.8891     1.1466 C.ar    
  10 C10            1.5075    -4.1939     0.6272 C.ar    
  11 C11            1.5040    -2.6811     2.5258 C.ar    
  12 C12            1.5265    -3.7657     3.3793 C.ar    
  13 C13            1.5400    -5.0628     2.8637 C.ar    
  14 C14            1.5301    -5.2757     1.4983 C.ar    
  15 C15            1.4539    -2.3220    -2.5276 C.3     
  16 O16            1.5626    -6.1256     3.7120 O.3     
  17 C17            1.5754    -7.4268     3.1214 C.3     
  18 O18            1.5360    -3.5702     4.7257 O.3     
  19 C19           -1.1335     3.6089     0.0270 C.3     
  20 C20           -2.5551     4.1744     0.0369 C.3     
  21 H21           -0.4983    -0.3791     0.8948 H       
  22 H22           -0.5153    -0.3696    -0.8850 H       
  23 H23            1.9516    -0.1193    -0.9073 H       
  24 H24            1.9686    -0.1289     0.8726 H       
  25 H25            1.4943    -1.6771     2.9237 H       
  26 H26            1.5399    -6.2829     1.1087 H       
  27 H27            1.4594    -3.1814    -3.1980 H       
  28 H28            0.5544    -1.7314    -2.7013 H       
  29 H29            2.3341    -1.7077    -2.7170 H       
  30 H30            0.6816    -7.5578     2.5114 H       
  31 H31            2.4613    -7.5329     2.4952 H       
  32 H32            1.5931    -8.1822     3.9069 H       
  33 H33            0.6555    -3.5257     5.1229 H       
  34 H34           -0.6017     3.9472     0.9164 H       
  35 H35           -0.6102     3.9569    -0.8636 H       
  36 H36           -3.0869     3.8361    -0.8525 H       
  37 H37           -3.0784     3.8265     0.9275 H       
  38 H38           -2.5128     5.2636     0.0426 H       
@<TRIPOS>BOND
   1    1    2 1
   2    1    4 2
   3    1    5 1
   4    2    3 1
   5    2   21 1
   6    2   22 1
   7    3    8 1
   8    3   23 1
   9    3   24 1
  10    5   19 1
  11    6    7 1
  12    6   10 1
  13    7    8 2
  14    7   15 1
  15    8    9 1
  16    9   10 ar
  17    9   11 ar
  18   10   14 ar
  19   11   12 ar
  20   11   25 1
  21   12   13 ar
  22   12   18 1
  23   13   14 ar
  24   13   16 1
  25   14   26 1
  26   15   27 1
  27   15   28 1
  28   15   29 1
  29   16   17 1
  30   17   30 1
  31   17   31 1
  32   17   32 1
  33   18   33 1
  34   19   20 1
  35   19   34 1
  36   19   35 1
  37   20   36 1
  38   20   37 1
  39   20   38 1

#	End of record

