#	Name: ASD01001121
#	Creating user name:	WinNT
#	Creation time:	15. 06. 2019 18:55

#	Modifying user name:	WinNT
#	Modification time:	15. 06. 2019 18:55

#	Program:	/corina/corina34_cracker 3.40 0067  02.08.2006

@<TRIPOS>MOLECULE
ASD01001121
  34   36    0    0    0
SMALL
NO_CHARGES


@<TRIPOS>ATOM
   1 C1            -0.0161     1.3338     0.0094 C.2     
   2 C2             0.0021    -0.0041     0.0020 C.2     
   3 C3            -1.3323    -0.5755     0.0105 C.2     
   4 C4            -2.3245     0.3651     0.0244 C.2     
   5 S5            -1.6658     1.9350     0.0208 S.3     
   6 N6            -3.6799     0.0799     0.0339 N.am    
   7 C7            -4.5797     1.0832     0.0474 C.2     
   8 C8            -1.5906    -2.0184     0.0042 C.2     
   9 O9            -1.6884    -2.6237     1.0557 O.2     
  10 C10           -6.0134     0.7815     0.0576 C.2     
  11 C11            1.2250     2.2057     0.0022 C.3     
  12 C12            2.4300     1.3497     0.4014 C.3     
  13 C13            2.4400     0.0744    -0.4468 C.3     
  14 C14            1.2810    -0.8262    -0.0127 C.3     
  15 C15           -7.0186     1.7077     0.0715 C.2     
  16 C16           -8.2738     1.1474     0.0786 C.2     
  17 C17           -8.2984    -0.1906     0.0708 C.2     
  18 S18           -6.7167    -0.8300     0.0461 S.3     
  19 N19           -1.7196    -2.6748    -1.1658 N.am    
  20 O20           -4.2012     2.2400     0.0512 O.2     
  21 H21           -3.9815    -0.8420     0.0309 H       
  22 H22            1.3803     2.6121    -0.9972 H       
  23 H23            1.1031     3.0207     0.7156 H       
  24 H24            3.3487     1.9101     0.2281 H       
  25 H25            2.3561     1.0854     1.4563 H       
  26 H26            2.3251     0.3358    -1.4987 H       
  27 H27            3.3837    -0.4517    -0.3023 H       
  28 H28            1.4766    -1.2178     0.9855 H       
  29 H29            1.1757    -1.6513    -0.7171 H       
  30 H30           -6.8440     2.7735     0.0767 H       
  31 H31           -9.1744     1.7434     0.0900 H       
  32 H32           -9.1993    -0.7863     0.0751 H       
  33 H33           -1.6416    -2.1925    -2.0037 H       
  34 H34           -1.8905    -3.6297    -1.1699 H       
@<TRIPOS>BOND
   1    1    2 2
   2    1   11 1
   3    1    5 1
   4    2    3 1
   5    2   14 1
   6    3    4 2
   7    3    8 1
   8    4    5 1
   9    4    6 1
  10    6    7 am
  11    6   21 1
  12    7   10 1
  13    7   20 2
  14    8    9 2
  15    8   19 am
  16   10   15 2
  17   10   18 1
  18   11   12 1
  19   11   22 1
  20   11   23 1
  21   12   13 1
  22   12   24 1
  23   12   25 1
  24   13   14 1
  25   13   26 1
  26   13   27 1
  27   14   28 1
  28   14   29 1
  29   15   16 1
  30   15   30 1
  31   16   17 2
  32   16   31 1
  33   17   18 1
  34   17   32 1
  35   19   33 1
  36   19   34 1

#	End of record

