#	Name: ASD00071015
#	Creating user name:	WinNT
#	Creation time:	15. 06. 2019 18:30

#	Modifying user name:	WinNT
#	Modification time:	15. 06. 2019 18:30

#	Program:	/corina/corina34_cracker 3.40 0067  02.08.2006

@<TRIPOS>MOLECULE
ASD00071015
  39   41    0    0    0
SMALL
NO_CHARGES


@<TRIPOS>ATOM
   1 C1            -0.0233     1.2051     0.0123 C.2     
   2 O2             0.6751     1.2258    -0.9834 O.2     
   3 C3             0.4196     0.4645     1.2084 C.ar    
   4 C4             1.5918    -0.3049     1.1680 C.ar    
   5 C5             1.9986    -0.9965     2.2987 C.ar    
   6 C6             1.2519    -0.9276     3.4586 C.ar    
   7 C7             0.0936    -0.1688     3.5028 C.ar    
   8 C8            -0.3229     0.5298     2.3905 C.ar    
   9 O9             2.3236    -0.3724     0.0279 O.3     
  10 C10            3.5050    -1.1756     0.0619 C.3     
  11 N11           -3.6864     1.8366    -0.0772 N.ar    
  12 C12           -2.5282     1.2140    -0.0868 C.ar    
  13 C13           -1.3096     1.9255     0.0256 C.ar    
  14 C14           -1.3374     3.3091     0.1490 C.ar    
  15 C15           -2.5897     3.9483     0.1568 C.ar    
  16 C16           -2.6898     5.3442     0.2790 C.ar    
  17 C17           -3.9218     5.9348     0.2836 C.ar    
  18 C18           -5.0825     5.1653     0.1686 C.ar    
  19 C19           -5.0172     3.8110     0.0489 C.ar    
  20 C20           -3.7679     3.1679     0.0398 C.ar    
  21 O21           -4.0195     7.2854     0.4017 O.3     
  22 C22           -5.3350     7.8433     0.4001 C.3     
  23 N23           -2.5000    -0.1631    -0.2100 N.pl3   
  24 H24            2.9003    -1.5902     2.2724 H       
  25 H25            1.5728    -1.4688     4.3364 H       
  26 H26           -0.4833    -0.1213     4.4145 H       
  27 H27           -1.2243     1.1233     2.4308 H       
  28 H28            3.2376    -2.2052     0.2997 H       
  29 H29            3.9948    -1.1429    -0.9113 H       
  30 H30            4.1838    -0.7914     0.8233 H       
  31 H31           -0.4232     3.8774     0.2367 H       
  32 H32           -1.7982     5.9469     0.3690 H       
  33 H33           -6.0463     5.6526     0.1752 H       
  34 H34           -5.9243     3.2315    -0.0387 H       
  35 H35           -5.2704     8.9268     0.5006 H       
  36 H36           -5.8341     7.5944    -0.5364 H       
  37 H37           -5.9042     7.4344     1.2349 H       
  38 H38           -3.3290    -0.6668    -0.2138 H       
  39 H39           -1.6513    -0.6254    -0.2926 H       
@<TRIPOS>BOND
   1    1    2 2
   2    1    3 1
   3    1   13 1
   4    3    4 ar
   5    3    8 ar
   6    4    5 ar
   7    4    9 1
   8    5    6 ar
   9    5   24 1
  10    6    7 ar
  11    6   25 1
  12    7    8 ar
  13    7   26 1
  14    8   27 1
  15    9   10 1
  16   10   28 1
  17   10   29 1
  18   10   30 1
  19   11   12 ar
  20   11   20 ar
  21   12   13 ar
  22   12   23 1
  23   13   14 ar
  24   14   15 ar
  25   14   31 1
  26   15   16 ar
  27   15   20 ar
  28   16   17 ar
  29   16   32 1
  30   17   18 ar
  31   17   21 1
  32   18   19 ar
  33   18   33 1
  34   19   20 ar
  35   19   34 1
  36   21   22 1
  37   22   35 1
  38   22   36 1
  39   22   37 1
  40   23   38 1
  41   23   39 1

#	End of record

