#	Name: ASD08150446
#	Creating user name:	WinNT
#	Creation time:	15. 06. 2019 21:16

#	Modifying user name:	WinNT
#	Modification time:	15. 06. 2019 21:16

#	Program:	/corina/corina34_cracker 3.40 0067  02.08.2006

@<TRIPOS>MOLECULE
ASD08150446
  43   46    0    0    0
SMALL
NO_CHARGES


@<TRIPOS>ATOM
   1 N1            -0.0179     1.4659     0.0101 N.3     
   2 C2             0.0021    -0.0041     0.0020 C.3     
   3 C3             0.7497    -0.4921    -1.2417 C.3     
   4 O4             2.0659     0.0673    -1.2506 O.3     
   5 C5             2.0838     1.4973    -1.2437 C.3     
   6 C6             1.3496     2.0055    -0.0001 C.3     
   7 C7            -1.9768     1.5632     2.9952 C.ar    
   8 N8            -2.1399     2.8428     3.2257 N.ar    
   9 C9            -1.6083     3.7752     2.4018 C.ar    
  10 C10           -0.8797     3.3286     1.2971 C.ar    
  11 C11           -0.7333     1.9468     1.0946 C.ar    
  12 N12           -1.2930     1.1088     1.9588 N.ar    
  13 C13           -1.6699     5.1756     2.4745 C.2     
  14 C14           -1.0437     5.8303     1.5092 C.2     
  15 S15           -0.2943     4.7110     0.3831 S.3     
  16 C16           -0.9824     7.3315     1.3929 C.3     
  17 N17            0.1958     7.8309     2.1143 N.3     
  18 C18            0.4237     9.2544     1.8293 C.3     
  19 C19            1.6085     9.7548     2.6589 C.3     
  20 N20            2.8006     8.9585     2.3355 N.3     
  21 C21            2.5728     7.5350     2.6206 C.3     
  22 C22            1.3879     7.0346     1.7909 C.3     
  23 Cl23          -2.6798     0.4205     4.0970 Cl      
  24 H24            0.5087    -0.3661     0.8967 H       
  25 H25           -1.0202    -0.3818    -0.0162 H       
  26 H26            0.8167    -1.5799    -1.2226 H       
  27 H27            0.2136    -0.1754    -2.1363 H       
  28 H28            3.1155     1.8483    -1.2262 H       
  29 H29            1.5864     1.8718    -2.1384 H       
  30 H30            1.3110     3.0946    -0.0198 H       
  31 H31            1.8778     1.6756     0.8946 H       
  32 H32           -2.1953     5.6868     3.2676 H       
  33 H33           -0.9107     7.6119     0.3420 H       
  34 H34           -1.8839     7.7665     1.8243 H       
  35 H35            0.6421     9.3826     0.7691 H       
  36 H36           -0.4684     9.8245     2.0886 H       
  37 H37            1.7976    10.8030     2.4275 H       
  38 H38            1.3791     9.6518     3.7195 H       
  39 H39            3.0771     9.0952     1.3748 H       
  40 H40            3.4649     6.9649     2.3612 H       
  41 H41            2.3543     7.4068     3.6807 H       
  42 H42            1.1988     5.9864     2.0223 H       
  43 H43            1.6173     7.1376     0.7303 H       
@<TRIPOS>BOND
   1    1    2 1
   2    1    6 1
   3    1   11 1
   4    2    3 1
   5    2   24 1
   6    2   25 1
   7    3    4 1
   8    3   26 1
   9    3   27 1
  10    4    5 1
  11    5    6 1
  12    5   28 1
  13    5   29 1
  14    6   30 1
  15    6   31 1
  16    7    8 ar
  17    7   12 ar
  18    7   23 1
  19    8    9 ar
  20    9   10 ar
  21    9   13 1
  22   10   11 ar
  23   10   15 1
  24   11   12 ar
  25   13   14 2
  26   13   32 1
  27   14   15 1
  28   14   16 1
  29   16   17 1
  30   16   33 1
  31   16   34 1
  32   17   18 1
  33   17   22 1
  34   18   19 1
  35   18   35 1
  36   18   36 1
  37   19   20 1
  38   19   37 1
  39   19   38 1
  40   20   21 1
  41   20   39 1
  42   21   22 1
  43   21   40 1
  44   21   41 1
  45   22   42 1
  46   22   43 1

#	End of record

