#	Name: ASD08390013
#	Creating user name:	WinNT
#	Creation time:	15. 06. 2019 21:19

#	Modifying user name:	WinNT
#	Modification time:	15. 06. 2019 21:19

#	Program:	/corina/corina34_cracker 3.40 0067  02.08.2006

@<TRIPOS>MOLECULE
ASD08390013
  47   50    0    0    0
SMALL
NO_CHARGES


@<TRIPOS>ATOM
   1 N1             0.0168     1.4987    -0.1329 N.2     
   2 C2            -0.0310     0.0715     0.2129 C.3     
   3 C3             1.4494    -0.3575     0.2395 C.3     
   4 N4             2.1674     0.8834    -0.0962 N.pl3   
   5 C5             1.2424     1.8783    -0.2876 C.2     
   6 C6             3.5556     1.0239    -0.2018 C.ar    
   7 C7             4.2379     0.4201    -1.2499 C.ar    
   8 C8             5.6080     0.5605    -1.3525 C.ar    
   9 C9             6.3014     1.3026    -0.4112 C.ar    
  10 C10            5.6231     1.9051     0.6349 C.ar    
  11 C11            4.2523     1.7721     0.7381 C.ar    
  12 F12            7.6416     1.4386    -0.5135 F       
  13 C13           -0.6711    -0.1256     1.5886 C.3     
  14 C14            1.8380    -0.8417     1.6127 C.ar    
  15 C15            1.8968    -2.1973     1.8767 C.ar    
  16 C16            2.2532    -2.6414     3.1363 C.ar    
  17 C17            2.5512    -1.7299     4.1319 C.ar    
  18 C18            2.4932    -0.3743     3.8677 C.ar    
  19 C19            2.1411     0.0698     2.6069 C.ar    
  20 C20            1.6158     3.2666    -0.6420 C.ar    
  21 C21            2.8676     3.5354    -1.1950 C.ar    
  22 C22            3.2099     4.8313    -1.5231 C.ar    
  23 C23            2.3142     5.8627    -1.3046 C.ar    
  24 C24            1.0712     5.6024    -0.7560 C.ar    
  25 C25            0.7150     4.3099    -0.4295 C.ar    
  26 C26           -0.7888    -0.7009    -0.8360 C.2     
  27 O27           -0.4346    -1.8156    -1.1390 O.2     
  28 O28           -1.8572    -0.1504    -1.4337 O.3     
  29 H29            1.6403    -1.1267    -0.5088 H       
  30 H30            3.6975    -0.1591    -1.9840 H       
  31 H31            6.1390     0.0908    -2.1673 H       
  32 H32            6.1660     2.4829     1.3683 H       
  33 H33            3.7231     2.2461     1.5515 H       
  34 H34           -1.6954     0.2466     1.5694 H       
  35 H35           -0.6745    -1.1864     1.8391 H       
  36 H36           -0.0993     0.4227     2.3373 H       
  37 H37            1.6640    -2.9095     1.0988 H       
  38 H38            2.2985    -3.7006     3.3427 H       
  39 H39            2.8289    -2.0769     5.1162 H       
  40 H40            2.7257     0.3379     4.6456 H       
  41 H41            2.0994     1.1289     2.3994 H       
  42 H42            3.5678     2.7311    -1.3657 H       
  43 H43            4.1791     5.0408    -1.9511 H       
  44 H44            2.5867     6.8753    -1.5630 H       
  45 H45            0.3765     6.4119    -0.5871 H       
  46 H46           -0.2576     4.1072    -0.0060 H       
  47 H47           -2.3109    -0.6843    -2.1002 H       
@<TRIPOS>BOND
   1    1    2 1
   2    1    5 2
   3    2   13 1
   4    2    3 1
   5    2   26 1
   6    3    4 1
   7    3   14 1
   8    3   29 1
   9    4    5 1
  10    4    6 1
  11    5   20 1
  12    6    7 ar
  13    6   11 ar
  14    7    8 ar
  15    7   30 1
  16    8    9 ar
  17    8   31 1
  18    9   10 ar
  19    9   12 1
  20   10   11 ar
  21   10   32 1
  22   11   33 1
  23   13   34 1
  24   13   35 1
  25   13   36 1
  26   14   15 ar
  27   14   19 ar
  28   15   16 ar
  29   15   37 1
  30   16   17 ar
  31   16   38 1
  32   17   18 ar
  33   17   39 1
  34   18   19 ar
  35   18   40 1
  36   19   41 1
  37   20   21 ar
  38   20   25 ar
  39   21   22 ar
  40   21   42 1
  41   22   23 ar
  42   22   43 1
  43   23   24 ar
  44   23   44 1
  45   24   25 ar
  46   24   45 1
  47   25   46 1
  48   26   27 2
  49   26   28 1
  50   28   47 1

#	End of record

