#	Name: ASD00100090
#	Creating user name:	WinNT
#	Creation time:	15. 06. 2019 18:30

#	Modifying user name:	WinNT
#	Modification time:	15. 06. 2019 18:30

#	Program:	/corina/corina34_cracker 3.40 0067  02.08.2006

@<TRIPOS>MOLECULE
ASD00100090
  79   83    0    0    0
SMALL
NO_CHARGES


@<TRIPOS>ATOM
   1 C1            -0.0167     1.3781     0.0096 C.ar    
   2 C2             0.0021    -0.0041     0.0020 C.ar    
   3 C3             1.2084    -0.6789    -0.0132 C.ar    
   4 C4             2.3960     0.0285    -0.0212 C.ar    
   5 C5             2.3773     1.4107    -0.0145 C.ar    
   6 C6             1.1709     2.0855     0.0021 C.ar    
   7 S7            -1.5544     2.2383     0.0216 S.o2    
   8 O8            -1.2971     3.5278    -0.5171 O.2     
   9 O9            -2.5173     1.3465    -0.5231 O.2     
  10 N10           -1.9747     2.4690     1.6067 N.am    
  11 C11            3.7112    -0.7071    -0.0368 C.3     
  12 C12            3.7924    -1.5801    -1.2907 C.3     
  13 C13            4.8605     0.3028    -0.0431 C.3     
  14 C14            3.8159    -1.5910     1.2077 C.3     
  15 C15           -1.1515     3.3237     2.4658 C.3     
  16 C16           -2.0500     4.0693     3.4546 C.3     
  17 C17           -1.1903     4.9619     4.3518 C.3     
  18 C18           -0.1904     4.0979     5.1229 C.3     
  19 C19            0.7081     3.3523     4.1341 C.3     
  20 C20           -0.1516     2.4597     3.2369 C.3     
  21 C21            0.6693     4.9905     6.0202 C.3     
  22 C22            1.5832     4.1176     6.8826 C.3     
  23 N23            2.4086     4.9746     7.7441 N.3     
  24 C24            3.1239     4.1777     8.7489 C.3     
  25 C25            3.8556     5.1112     9.7159 C.3     
  26 C26            4.8414     5.9807     8.9306 C.3     
  27 C27            4.0778     6.7638     7.8591 C.3     
  28 C28            3.3397     5.7823     6.9459 C.3     
  29 O29            5.8592     8.5491    11.3367 O.3     
  30 C30            4.9341     7.8789    10.6277 C.2     
  31 C31            5.5218     6.9437     9.8691 C.2     
  32 C32            6.9615     7.0455    10.1364 C.ar    
  33 C33            7.0969     8.0828    11.0745 C.ar    
  34 C34            8.0886     6.3684     9.6738 C.ar    
  35 C35            9.3349     6.7224    10.1419 C.ar    
  36 C36            9.4693     7.7464    11.0681 C.ar    
  37 C37            8.3625     8.4239    11.5335 C.ar    
  38 H38           -0.9258    -0.5567     0.0083 H       
  39 H39            1.2231    -1.7588    -0.0184 H       
  40 H40            3.3051     1.9634    -0.0205 H       
  41 H41            1.1563     3.1654     0.0077 H       
  42 H42           -2.7659     2.0382     1.9663 H       
  43 H43            3.7179    -0.9504    -2.1772 H       
  44 H44            4.7437    -2.1122    -1.3019 H       
  45 H45            2.9737    -2.2996    -1.2861 H       
  46 H46            4.8026     0.9248     0.8502 H       
  47 H47            5.8117    -0.2293    -0.0544 H       
  48 H48            4.7859     0.9325    -0.9297 H       
  49 H49            2.9971    -2.3105     1.2122 H       
  50 H50            4.7671    -2.1231     1.1964 H       
  51 H51            3.7580    -0.9691     2.1010 H       
  52 H52           -0.6113     4.0439     1.8513 H       
  53 H53           -2.7624     4.6848     2.9052 H       
  54 H54           -2.5902     3.3491     4.0690 H       
  55 H55           -0.6501     5.6821     3.7374 H       
  56 H56           -1.8304     5.4931     5.0562 H       
  57 H57           -0.7306     3.3777     5.7374 H       
  58 H58            1.2483     4.0725     3.5197 H       
  59 H59            1.4205     2.7368     4.6835 H       
  60 H60           -0.6918     1.7395     3.8514 H       
  61 H61            0.4885     1.9285     2.5325 H       
  62 H62            1.2763     5.6511     5.4010 H       
  63 H63            0.0237     5.5877     6.6641 H       
  64 H64            0.9762     3.4570     7.5017 H       
  65 H65            2.2287     3.5204     6.2386 H       
  66 H66            2.4109     3.5671     9.3030 H       
  67 H67            3.8467     3.5306     8.2519 H       
  68 H68            3.1320     5.7491    10.2234 H       
  69 H69            4.3991     4.5191    10.4522 H       
  70 H70            5.5883     5.3454     8.4546 H       
  71 H71            3.3577     7.4277     8.3374 H       
  72 H72            4.7800     7.3524     7.2687 H       
  73 H73            4.0615     5.1277     6.4573 H       
  74 H74            2.7834     6.3373     6.1904 H       
  75 H75            3.8712     8.0671    10.6643 H       
  76 H76            7.9854     5.5708     8.9530 H       
  77 H77           10.2110     6.2003     9.7866 H       
  78 H78           10.4511     8.0154    11.4286 H       
  79 H79            8.4796     9.2194    12.2544 H       
@<TRIPOS>BOND
   1    1    2 ar
   2    1    6 ar
   3    1    7 1
   4    2    3 ar
   5    2   38 1
   6    3    4 ar
   7    3   39 1
   8    4    5 ar
   9    4   11 1
  10    5    6 ar
  11    5   40 1
  12    6   41 1
  13    7    8 2
  14    7    9 2
  15    7   10 am
  16   10   15 1
  17   10   42 1
  18   11   12 1
  19   11   14 1
  20   11   13 1
  21   12   43 1
  22   12   44 1
  23   12   45 1
  24   13   46 1
  25   13   47 1
  26   13   48 1
  27   14   49 1
  28   14   50 1
  29   14   51 1
  30   15   16 1
  31   15   20 1
  32   15   52 1
  33   16   17 1
  34   16   53 1
  35   16   54 1
  36   17   18 1
  37   17   55 1
  38   17   56 1
  39   18   19 1
  40   18   21 1
  41   18   57 1
  42   19   20 1
  43   19   58 1
  44   19   59 1
  45   20   60 1
  46   20   61 1
  47   21   22 1
  48   21   62 1
  49   21   63 1
  50   22   23 1
  51   22   64 1
  52   22   65 1
  53   23   24 1
  54   23   28 1
  55   24   25 1
  56   24   66 1
  57   24   67 1
  58   25   26 1
  59   25   68 1
  60   25   69 1
  61   26   27 1
  62   26   31 1
  63   26   70 1
  64   27   28 1
  65   27   71 1
  66   27   72 1
  67   28   73 1
  68   28   74 1
  69   29   30 1
  70   29   33 1
  71   30   31 2
  72   30   75 1
  73   31   32 1
  74   32   33 ar
  75   32   34 ar
  76   33   37 ar
  77   34   35 ar
  78   34   76 1
  79   35   36 ar
  80   35   77 1
  81   36   37 ar
  82   36   78 1
  83   37   79 1

#	End of record

