#	Name: ASD03730685
#	Creating user name:	WinNT
#	Creation time:	15. 06. 2019 20:44

#	Modifying user name:	WinNT
#	Modification time:	15. 06. 2019 20:44

#	Program:	/corina/corina34_cracker 3.40 0067  02.08.2006

@<TRIPOS>MOLECULE
ASD03730685
  59   64    0    0    0
SMALL
NO_CHARGES


@<TRIPOS>ATOM
   1 O1            -0.4788     0.5809     2.3257 O.3     
   2 C2            -0.2558    -0.8414     2.3475 C.3     
   3 O3             0.6723    -1.0589     1.2685 O.3     
   4 C4             1.3653     0.1109     1.1414 C.ar    
   5 C5             0.6553     1.1195     1.7886 C.ar    
   6 C6             2.5659     0.4006     0.5186 C.ar    
   7 C7             3.0697     1.6978     0.5275 C.ar    
   8 C8             2.3441     2.7002     1.1640 C.ar    
   9 C9             1.1514     2.4124     1.7941 C.ar    
  10 O10            4.2281     2.1865    -0.0011 O.3     
  11 C11            3.1172     3.9773     0.9721 C.3     
  12 C12            4.1254     3.6177    -0.1279 C.3     
  13 N13            2.4070     6.0873     1.4889 N.am    
  14 C14            2.2331     5.1212     0.5652 C.2     
  15 C15            3.7978     4.4294     2.2296 C.ar    
  16 C16            4.7180     3.8453     3.0821 C.ar    
  17 C17            5.1706     4.5421     4.1971 C.ar    
  18 C18            4.6977     5.8159     4.4477 C.ar    
  19 C19            3.7804     6.4002     3.5987 C.ar    
  20 C20            3.3191     5.7117     2.4783 C.ar    
  21 O21            1.5057     5.1669    -0.4043 O.2     
  22 C22            1.7203     7.3811     1.4585 C.3     
  23 C23            0.4035     7.2778     2.2307 C.3     
  24 C24           -0.3137     8.6289     2.1989 C.3     
  25 C25           -1.6305     8.5256     2.9711 C.3     
  26 C26           -2.3477     9.8767     2.9393 C.3     
  27 N27            5.1916     2.5567     2.8231 N.pl3   
  28 C28            6.2336     2.0283     3.5891 C.ar    
  29 C29            6.1818     0.7080     4.0174 C.ar    
  30 C30            7.2146     0.1869     4.7759 C.ar    
  31 C31            8.2995     0.9807     5.1086 C.ar    
  32 C32            8.3534     2.2973     4.6826 C.ar    
  33 C33            7.3257     2.8208     3.9188 C.ar    
  34 F34            9.4128     3.0695     5.0090 F       
  35 F35            7.1647    -1.0972     5.1928 F       
  36 H36            0.1834    -1.1456     3.2976 H       
  37 H37           -1.1870    -1.3779     2.1657 H       
  38 H38            3.1161    -0.3851     0.0223 H       
  39 H39            0.6026     3.1975     2.2929 H       
  40 H40            5.0883     4.0930     0.0591 H       
  41 H41            3.7410     3.8927    -1.1102 H       
  42 H42            5.8886     4.0892     4.8648 H       
  43 H43            5.0486     6.3578     5.3135 H       
  44 H44            3.4176     7.3965     3.8037 H       
  45 H45            2.3533     8.1393     1.9194 H       
  46 H46            1.5145     7.6589     0.4248 H       
  47 H47           -0.2295     6.5195     1.7698 H       
  48 H48            0.6094     6.9999     3.2644 H       
  49 H49            0.3193     9.3872     2.6598 H       
  50 H50           -0.5195     8.9067     1.1652 H       
  51 H51           -2.2634     7.7673     2.5102 H       
  52 H52           -1.4246     8.2478     4.0048 H       
  53 H53           -2.5535    10.1546     1.9056 H       
  54 H54           -3.2858     9.8031     3.4894 H       
  55 H55           -1.7147    10.6350     3.4002 H       
  56 H56            4.7970     2.0289     2.1113 H       
  57 H57            5.3355     0.0888     3.7588 H       
  58 H58            9.1047     0.5724     5.7014 H       
  59 H59            7.3703     3.8462     3.5828 H       
@<TRIPOS>BOND
   1    1    2 1
   2    1    5 1
   3    2    3 1
   4    2   36 1
   5    2   37 1
   6    3    4 1
   7    4    5 ar
   8    4    6 ar
   9    5    9 ar
  10    6    7 ar
  11    6   38 1
  12    7    8 ar
  13    7   10 1
  14    8    9 ar
  15    8   11 1
  16    9   39 1
  17   10   12 1
  18   11   12 1
  19   11   14 1
  20   11   15 1
  21   12   40 1
  22   12   41 1
  23   13   14 am
  24   13   20 1
  25   13   22 1
  26   14   21 2
  27   15   16 ar
  28   15   20 ar
  29   16   17 ar
  30   16   27 1
  31   17   18 ar
  32   17   42 1
  33   18   19 ar
  34   18   43 1
  35   19   20 ar
  36   19   44 1
  37   22   23 1
  38   22   45 1
  39   22   46 1
  40   23   24 1
  41   23   47 1
  42   23   48 1
  43   24   25 1
  44   24   49 1
  45   24   50 1
  46   25   26 1
  47   25   51 1
  48   25   52 1
  49   26   53 1
  50   26   54 1
  51   26   55 1
  52   27   28 1
  53   27   56 1
  54   28   29 ar
  55   28   33 ar
  56   29   30 ar
  57   29   57 1
  58   30   31 ar
  59   30   35 1
  60   31   32 ar
  61   31   58 1
  62   32   33 ar
  63   32   34 1
  64   33   59 1

#	End of record

