#	Name: ASD02690033
#	Creating user name:	WinNT
#	Creation time:	15. 06. 2019 20:26

#	Modifying user name:	WinNT
#	Modification time:	15. 06. 2019 20:26

#	Program:	/corina/corina34_cracker 3.40 0067  02.08.2006

@<TRIPOS>MOLECULE
ASD02690033
  66   69    0    0    0
SMALL
NO_CHARGES


@<TRIPOS>ATOM
   1 C1             0.2731     2.0325    -0.0889 C.2     
   2 C2             0.4694     0.5384    -0.0881 C.3     
   3 O3             1.2313     2.7677    -0.1271 O.2     
   4 O4            -0.9663     2.5467    -0.0527 O.3     
   5 N5            -2.3794     3.9341    -2.1314 N.3     
   6 C6            -3.6233     4.3049    -2.8181 C.3     
   7 C7            -3.6427     3.6792    -4.2146 C.3     
   8 C8            -2.4316     4.1768    -5.0084 C.3     
   9 C9            -1.1513     3.8206    -4.2479 C.3     
  10 C10           -1.2041     4.4422    -2.8505 C.3     
  11 N11           -3.4851     4.1424     1.4249 N.am    
  12 C12           -3.5667     3.7688     0.0063 C.3     
  13 C13           -2.3873     4.4017    -0.7389 C.3     
  14 C14           -1.0798     3.9942    -0.0558 C.3     
  15 C15           -1.0730     4.5093     1.3853 C.3     
  16 C16           -2.2376     3.8777     2.1545 C.3     
  17 C17           -2.4124     3.5178    -6.3636 C.2     
  18 C18           -1.7369     4.1748    -7.4900 C.ar    
  19 C19           -1.7175     3.5645    -8.7503 C.ar    
  20 C20           -1.0858     4.1823    -9.7988 C.ar    
  21 C21           -0.4647     5.4126    -9.6123 C.ar    
  22 C22           -0.4806     6.0227    -8.3626 C.ar    
  23 C23           -1.1149     5.4163    -7.3090 C.ar    
  24 O24           -2.9548     2.4448    -6.5239 O.2     
  25 O25            0.1593     6.0195   -10.6529 O.3     
  26 C26            0.7770     7.2814   -10.3923 C.3     
  27 C27           -4.5328     4.7219     2.0438 C.2     
  28 C28           -4.4845     4.9736     3.4998 C.ar    
  29 C29           -4.9728     6.1730     4.0204 C.ar    
  30 C30           -4.9252     6.4014     5.3801 C.ar    
  31 C31           -4.3944     5.4448     6.2272 C.ar    
  32 C32           -3.9086     4.2537     5.7176 C.ar    
  33 C33           -3.9556     4.0104     4.3605 C.ar    
  34 O34           -5.5174     5.0377     1.4048 O.2     
  35 H35            1.5349     0.3118    -0.1252 H       
  36 H36            0.0395     0.1159     0.8201 H       
  37 H37           -0.0244     0.1066    -0.9587 H       
  38 H38           -4.4765     3.9415    -2.2454 H       
  39 H39           -3.6804     5.3899    -2.9055 H       
  40 H40           -3.5996     2.5935    -4.1275 H       
  41 H41           -4.5590     3.9674    -4.7298 H       
  42 H42           -2.4946     5.2583    -5.1291 H       
  43 H43           -1.0690     2.7371    -4.1614 H       
  44 H44           -0.2876     4.2098    -4.7870 H       
  45 H45           -1.2725     5.5266    -2.9377 H       
  46 H46           -0.3003     4.1785    -2.3013 H       
  47 H47           -3.5196     2.6840    -0.0892 H       
  48 H48           -4.5034     4.1344    -0.4146 H       
  49 H49           -2.4853     5.4871    -0.7201 H       
  50 H50           -0.2375     4.4234    -0.5985 H       
  51 H51           -0.1318     4.2390     1.8639 H       
  52 H52           -1.1831     5.5937     1.3846 H       
  53 H53           -2.2972     4.3151     3.1511 H       
  54 H54           -2.0821     2.8018     2.2342 H       
  55 H55           -2.1989     2.6088    -8.8960 H       
  56 H56           -1.0703     3.7125   -10.7712 H       
  57 H57            0.0038     6.9778    -8.2228 H       
  58 H58           -1.1309     5.8932    -6.3401 H       
  59 H59            0.0239     7.9905   -10.0485 H       
  60 H60            1.5401     7.1606    -9.6234 H       
  61 H61            1.2382     7.6558   -11.3062 H       
  62 H62           -5.3867     6.9208     3.3602 H       
  63 H63           -5.3027     7.3291     5.7842 H       
  64 H64           -4.3588     5.6288     7.2908 H       
  65 H65           -3.4955     3.5111     6.3842 H       
  66 H66           -3.5801     3.0784     3.9644 H       
@<TRIPOS>BOND
   1    1    2 1
   2    1    3 2
   3    1    4 1
   4    2   35 1
   5    2   36 1
   6    2   37 1
   7    4   14 1
   8    5    6 1
   9    5   10 1
  10    5   13 1
  11    6    7 1
  12    6   38 1
  13    6   39 1
  14    7    8 1
  15    7   40 1
  16    7   41 1
  17    8    9 1
  18    8   17 1
  19    8   42 1
  20    9   10 1
  21    9   43 1
  22    9   44 1
  23   10   45 1
  24   10   46 1
  25   11   12 1
  26   11   16 1
  27   11   27 am
  28   12   13 1
  29   12   47 1
  30   12   48 1
  31   13   14 1
  32   13   49 1
  33   14   15 1
  34   14   50 1
  35   15   16 1
  36   15   51 1
  37   15   52 1
  38   16   53 1
  39   16   54 1
  40   17   18 1
  41   17   24 2
  42   18   19 ar
  43   18   23 ar
  44   19   20 ar
  45   19   55 1
  46   20   21 ar
  47   20   56 1
  48   21   22 ar
  49   21   25 1
  50   22   23 ar
  51   22   57 1
  52   23   58 1
  53   25   26 1
  54   26   59 1
  55   26   60 1
  56   26   61 1
  57   27   28 1
  58   27   34 2
  59   28   29 ar
  60   28   33 ar
  61   29   30 ar
  62   29   62 1
  63   30   31 ar
  64   30   63 1
  65   31   32 ar
  66   31   64 1
  67   32   33 ar
  68   32   65 1
  69   33   66 1

#	End of record

