#	Name: ASD01918201
#	Creating user name:	WinNT
#	Creation time:	15. 06. 2019 20:11

#	Modifying user name:	WinNT
#	Modification time:	15. 06. 2019 20:11

#	Program:	/corina/corina34_cracker 3.40 0067  02.08.2006

@<TRIPOS>MOLECULE
ASD01918201
  36   38    0    0    0
SMALL
NO_CHARGES


@<TRIPOS>ATOM
   1 N1            -0.0137     1.3118     0.0283 N.ar    
   2 C2             0.0044    -0.0038     0.0247 C.ar    
   3 C3             1.2021    -0.6993     0.0073 C.ar    
   4 C4             2.3980     0.0037    -0.0070 C.ar    
   5 C5             2.3516     1.3873    -0.0033 C.ar    
   6 C6             1.1088     2.0239     0.0150 C.ar    
   7 N7             1.0460     3.3896     0.0189 N.2     
   8 N8            -0.0995     3.9825     0.0354 N.2     
   9 C9            -0.1622     5.3471     0.0393 C.ar    
  10 C10            0.9512     7.4765     0.0229 C.ar    
  11 C11            1.0153     6.1018     0.0195 C.ar    
  12 C12           -1.4042     5.9905     0.0572 C.ar    
  13 C13           -1.4664     7.3652     0.0606 C.ar    
  14 C14           -0.2896     8.1183     0.0462 C.ar    
  15 C15           -0.3575     9.5946     0.0503 C.2     
  16 O16            0.6660    10.2501     0.0335 O.2     
  17 N17           -1.5542    10.2141     0.0727 N.am    
  18 C18           -1.6186    11.6011     0.1855 C.ar    
  19 C19           -0.5237    13.6110     0.4791 C.ar    
  20 N20           -0.5071    12.2965     0.3674 N.ar    
  21 C21           -2.8493    12.2430     0.1002 C.ar    
  22 C22           -2.8988    13.6209     0.2138 C.ar    
  23 C23           -1.7109    14.3126     0.4097 C.ar    
  24 H24           -0.9277    -0.5492     0.0359 H       
  25 H25            1.2049    -1.7793     0.0052 H       
  26 H26            3.3441    -0.5169    -0.0204 H       
  27 H27            3.2635     1.9659    -0.0138 H       
  28 H28            1.8603     8.0593     0.0080 H       
  29 H29            1.9746     5.6058     0.0019 H       
  30 H30           -2.3139     5.4085     0.0679 H       
  31 H31           -2.4252     7.8622     0.0740 H       
  32 H32           -2.3708     9.6942     0.0103 H       
  33 H33            0.4033    14.1452     0.6269 H       
  34 H34           -3.7541    11.6736    -0.0530 H       
  35 H35           -3.8401    14.1467     0.1513 H       
  36 H36           -1.7150    15.3886     0.5024 H       
@<TRIPOS>BOND
   1    1    2 ar
   2    1    6 ar
   3    2    3 ar
   4    2   24 1
   5    3    4 ar
   6    3   25 1
   7    4    5 ar
   8    4   26 1
   9    5    6 ar
  10    5   27 1
  11    6    7 1
  12    7    8 2
  13    8    9 1
  14    9   12 ar
  15    9   11 ar
  16   10   11 ar
  17   10   14 ar
  18   10   28 1
  19   11   29 1
  20   12   13 ar
  21   12   30 1
  22   13   14 ar
  23   13   31 1
  24   14   15 1
  25   15   16 2
  26   15   17 am
  27   17   18 1
  28   17   32 1
  29   18   21 ar
  30   18   20 ar
  31   19   20 ar
  32   19   23 ar
  33   19   33 1
  34   21   22 ar
  35   21   34 1
  36   22   23 ar
  37   22   35 1
  38   23   36 1

#	End of record

