#	Name: ASD01871014
#	Creating user name:	WinNT
#	Creation time:	15. 06. 2019 19:39

#	Modifying user name:	WinNT
#	Modification time:	15. 06. 2019 19:39

#	Program:	/corina/corina34_cracker 3.40 0067  02.08.2006

@<TRIPOS>MOLECULE
ASD01871014
  28   30    0    0    0
SMALL
NO_CHARGES


@<TRIPOS>ATOM
   1 C1            -0.0371     1.3658    -0.3711 C.2     
   2 N2            -0.0411     0.1186    -0.7687 N.2     
   3 S3            -1.6696    -0.3662    -0.7502 S.3     
   4 C4            -2.2635     1.1548    -0.2016 C.2     
   5 N5            -1.1994     1.9122    -0.0672 N.2     
   6 O6            -3.5513     1.4950     0.0432 O.3     
   7 C7            -4.4977     0.5250    -0.0579 C.ar    
   8 C8            -4.6341    -0.4204     0.9485 C.ar    
   9 C9            -5.3330     0.4817    -1.1650 C.ar    
  10 C10           -6.2941    -0.5054    -1.2654 C.ar    
  11 C11           -6.4245    -1.4494    -0.2635 C.ar    
  12 C12           -5.5969    -1.4053     0.8433 C.ar    
  13 C13            1.2278     2.1346    -0.2603 C.2     
  14 C14            2.5206     1.6568    -0.5509 C.2     
  15 N15            3.3699     2.6253    -0.3320 N.2     
  16 N16            2.6593     3.7504     0.1033 N.pl3   
  17 C17            1.3491     3.4347     0.1359 C.2     
  18 C18            2.8643     0.2701    -1.0307 C.3     
  19 H19           -3.9880    -0.3864     1.8132 H       
  20 H20           -5.2320     1.2193    -1.9474 H       
  21 H21           -6.9445    -0.5395    -2.1269 H       
  22 H22           -7.1769    -2.2201    -0.3437 H       
  23 H23           -5.7008    -2.1439     1.6244 H       
  24 H24            3.0431     4.6099     0.3374 H       
  25 H25            0.5423     4.0899     0.4297 H       
  26 H26            2.8433     0.2471    -2.1202 H       
  27 H27            3.8609     0.0012    -0.6807 H       
  28 H28            2.1373    -0.4408    -0.6381 H       
@<TRIPOS>BOND
   1    1    2 2
   2    1   13 1
   3    1    5 1
   4    2    3 1
   5    3    4 1
   6    4    5 2
   7    4    6 1
   8    6    7 1
   9    7    8 ar
  10    7    9 ar
  11    8   12 ar
  12    8   19 1
  13    9   10 ar
  14    9   20 1
  15   10   11 ar
  16   10   21 1
  17   11   12 ar
  18   11   22 1
  19   12   23 1
  20   13   14 1
  21   13   17 2
  22   14   15 2
  23   14   18 1
  24   15   16 1
  25   16   17 1
  26   16   24 1
  27   17   25 1
  28   18   26 1
  29   18   27 1
  30   18   28 1

#	End of record

