#	Name: ASD03092877
#	Creating user name:	WinNT
#	Creation time:	15. 06. 2019 20:33

#	Modifying user name:	WinNT
#	Modification time:	15. 06. 2019 20:33

#	Program:	/corina/corina34_cracker 3.40 0067  02.08.2006

@<TRIPOS>MOLECULE
ASD03092877
  45   47    0    0    0
SMALL
NO_CHARGES


@<TRIPOS>ATOM
   1 C1            -0.0187     1.5258     0.0104 C.3     
   2 C2             0.0021    -0.0041     0.0020 C.3     
   3 C3            -1.2267    -0.6840     0.6092 C.3     
   4 C4             0.6786    -0.6949    -1.1837 C.3     
   5 H5             1.1089    -0.0595    -1.9578 H       
   6 C6             0.0742    -2.0128    -1.6723 C.3     
   7 N7             0.7792    -2.4562    -2.8776 N.pl3   
   8 C8             0.4022    -3.6445    -3.5107 C.ar    
   9 C9            -0.6440    -4.4024    -3.0010 C.ar    
  10 C10           -1.0147    -5.5759    -3.6280 C.ar    
  11 C11           -0.3437    -5.9972    -4.7636 C.ar    
  12 F12           -0.7076    -7.1456    -5.3750 F       
  13 C13            0.6995    -5.2429    -5.2737 C.ar    
  14 C14            1.0698    -4.0658    -4.6533 C.ar    
  15 C15            1.3553    -0.6933     0.1885 C.3     
  16 H16            1.3701    -1.6313     0.7435 H       
  17 C17            2.5657     0.1867     0.3665 C.ar    
  18 C18            2.9163     1.0878    -0.6214 C.ar    
  19 C19            4.0266     1.8950    -0.4582 C.ar    
  20 C20            4.7859     1.8014     0.6931 C.ar    
  21 C21            4.4347     0.9009     1.6814 C.ar    
  22 C22            3.3220     0.0968     1.5201 C.ar    
  23 S23            6.2018     2.8294     0.9007 S.o2    
  24 N24            5.6936     4.2196     1.6432 N.am    
  25 O25            7.0476     2.1648     1.8292 O.2     
  26 O26            6.6219     3.2022    -0.4046 O.2     
  27 H27            1.0039     1.9031     0.0027 H       
  28 H28           -0.5459     1.8868    -0.8726 H       
  29 H29           -0.5289     1.8773     0.9072 H       
  30 H30           -2.0035    -0.7757    -0.1499 H       
  31 H31           -0.9523    -1.6754     0.9699 H       
  32 H32           -1.5997    -0.0854     1.4403 H       
  33 H33            0.1744    -2.7692    -0.8938 H       
  34 H34           -0.9810    -1.8655    -1.9021 H       
  35 H35            1.5074    -1.9254    -3.2364 H       
  36 H36           -1.1672    -4.0745    -2.1149 H       
  37 H37           -1.8282    -6.1656    -3.2320 H       
  38 H38            1.2212    -5.5732    -6.1598 H       
  39 H39            1.8805    -3.4755    -5.0541 H       
  40 H40            2.3231     1.1609    -1.5209 H       
  41 H41            4.3010     2.5985    -1.2303 H       
  42 H42            5.0282     0.8275     2.5808 H       
  43 H43            3.0454    -0.6041     2.2939 H       
  44 H44            4.7581     4.3322     1.8738 H       
  45 H45            6.3313     4.9214     1.8475 H       
@<TRIPOS>BOND
   1    1    2 1
   2    1   27 1
   3    1   28 1
   4    1   29 1
   5    2   15 1
   6    2    3 1
   7    2    4 1
   8    3   30 1
   9    3   31 1
  10    3   32 1
  11    4    5 1
  12    4    6 1
  13    4   15 1
  14    6    7 1
  15    6   33 1
  16    6   34 1
  17    7    8 1
  18    7   35 1
  19    8   14 ar
  20    8    9 ar
  21    9   10 ar
  22    9   36 1
  23   10   11 ar
  24   10   37 1
  25   11   12 1
  26   11   13 ar
  27   13   14 ar
  28   13   38 1
  29   14   39 1
  30   15   16 1
  31   15   17 1
  32   17   22 ar
  33   17   18 ar
  34   18   19 ar
  35   18   40 1
  36   19   20 ar
  37   19   41 1
  38   20   21 ar
  39   20   23 1
  40   21   22 ar
  41   21   42 1
  42   22   43 1
  43   23   24 am
  44   23   25 2
  45   23   26 2
  46   24   44 1
  47   24   45 1

#	End of record

