#	Name: ASD05380026
#	Creating user name:	WinNT
#	Creation time:	15. 06. 2019 20:59

#	Modifying user name:	WinNT
#	Modification time:	15. 06. 2019 20:59

#	Program:	/corina/corina34_cracker 3.40 0067  02.08.2006

@<TRIPOS>MOLECULE
ASD05380026
  50   54    0    0    0
SMALL
NO_CHARGES


@<TRIPOS>ATOM
   1 C1            -0.2703     1.7437    -0.3083 C.ar    
   2 C2            -0.0036     0.3805    -0.5672 C.ar    
   3 C3             0.6312     2.7220    -0.7219 C.ar    
   4 C4             1.7812     2.3494    -1.3834 C.ar    
   5 C5             2.0462     1.0108    -1.6398 C.ar    
   6 C6             1.1684     0.0284    -1.2391 C.ar    
   7 C7             0.3505     4.1771    -0.4483 C.3     
   8 N8            -0.8955    -0.5546    -0.1547 N.2     
   9 C9            -1.9853    -0.2268     0.4705 C.2     
  10 N10           -2.3225     1.0586     0.7615 N.am    
  11 C11           -1.5099     2.0811     0.4063 C.2     
  12 C12           -3.5191     1.3260     1.4399 C.ar    
  13 C13           -4.6880     1.5514     0.7251 C.ar    
  14 C14           -3.5387     1.3603     2.8278 C.ar    
  15 C15           -4.7192     1.6236     3.4945 C.ar    
  16 C16           -5.8828     1.8533     2.7797 C.ar    
  17 C17           -5.8664     1.8143     1.3955 C.ar    
  18 C18           -2.9247    -1.3262     0.8948 C.3     
  19 N19           -2.9251    -2.3857    -0.1169 N.pl3   
  20 C20           -4.0229    -3.2171    -0.2472 C.ar    
  21 N21           -5.0867    -3.0696     0.5372 N.ar    
  22 O22           -1.7990     3.2360     0.6603 O.2     
  23 C23           -4.0445    -4.2337    -1.2140 C.ar    
  24 C24           -5.1850    -5.0528    -1.3069 C.ar    
  25 N25           -6.1990    -4.8293    -0.4726 N.ar    
  26 C26           -6.1371    -3.8611     0.4158 C.ar    
  27 C27           -3.1165    -4.7085    -2.2386 C.2     
  28 C28           -3.7178    -5.7354    -2.8613 C.2     
  29 N29           -4.9557    -5.9508    -2.3128 N.pl3   
  30 C30           -2.4639    -1.9015     2.2356 C.3     
  31 F31           -7.0366     2.1107     3.4337 F       
  32 H32            2.4823     3.1052    -1.7054 H       
  33 H33            2.9521     0.7367    -2.1601 H       
  34 H34            1.3853    -1.0095    -1.4442 H       
  35 H35            0.6702     4.4248     0.5639 H       
  36 H36            0.8967     4.7931    -1.1628 H       
  37 H37           -0.7183     4.3660    -0.5482 H       
  38 H38           -4.6755     1.5215    -0.3544 H       
  39 H39           -2.6315     1.1809     3.3857 H       
  40 H40           -4.7349     1.6500     4.5741 H       
  41 H41           -6.7749     1.9937     0.8397 H       
  42 H42           -3.9320    -0.9232     0.9993 H       
  43 H43           -2.1556    -2.5042    -0.6955 H       
  44 H44           -6.9800    -3.7071     1.0733 H       
  45 H45           -2.1361    -4.3099    -2.4539 H       
  46 H46           -3.2904    -6.3057    -3.6727 H       
  47 H47           -5.5774    -6.6394    -2.5961 H       
  48 H48           -2.4938    -1.1207     2.9955 H       
  49 H49           -3.1248    -2.7177     2.5271 H       
  50 H50           -1.4447    -2.2759     2.1393 H       
@<TRIPOS>BOND
   1    1    2 ar
   2    1    3 ar
   3    1   11 1
   4    2    8 1
   5    2    6 ar
   6    3    4 ar
   7    3    7 1
   8    4    5 ar
   9    4   32 1
  10    5    6 ar
  11    5   33 1
  12    6   34 1
  13    7   35 1
  14    7   36 1
  15    7   37 1
  16    8    9 2
  17    9   10 1
  18    9   18 1
  19   10   11 am
  20   10   12 1
  21   11   22 2
  22   12   13 ar
  23   12   14 ar
  24   13   17 ar
  25   13   38 1
  26   14   15 ar
  27   14   39 1
  28   15   16 ar
  29   15   40 1
  30   16   17 ar
  31   16   31 1
  32   17   41 1
  33   18   19 1
  34   18   30 1
  35   18   42 1
  36   19   20 1
  37   19   43 1
  38   20   21 ar
  39   20   23 ar
  40   21   26 ar
  41   23   24 ar
  42   23   27 1
  43   24   25 ar
  44   24   29 1
  45   25   26 ar
  46   26   44 1
  47   27   28 2
  48   27   45 1
  49   28   29 1
  50   28   46 1
  51   29   47 1
  52   30   48 1
  53   30   49 1
  54   30   50 1

#	End of record

