#	Name: ASD02198268
#	Creating user name:	WinNT
#	Creation time:	15. 06. 2019 20:19

#	Modifying user name:	WinNT
#	Modification time:	15. 06. 2019 20:19

#	Program:	/corina/corina34_cracker 3.40 0067  02.08.2006

@<TRIPOS>MOLECULE
ASD02198268
  44   46    0    0    0
SMALL
NO_CHARGES


@<TRIPOS>ATOM
   1 N1            -0.0191     1.1816     0.1585 N.2     
   2 C2             0.1274    -0.0938    -0.0975 C.2     
   3 O3             1.0410     1.7481     0.2637 O.3     
   4 C4             2.0919     0.9421     0.0947 C.2     
   5 C5             1.5886    -0.3103    -0.1519 C.2     
   6 C6             2.3228    -1.5611    -0.4075 C.2     
   7 O7             2.7369    -2.2246     0.5243 O.2     
   8 C8            -0.9411    -1.1028    -0.2911 C.ar    
   9 C9             3.5461     1.3315     0.1619 C.3     
  10 C10           -0.8863    -2.3213     0.3882 C.ar    
  11 C11           -1.8863    -3.2577     0.2027 C.ar    
  12 C12           -2.9387    -2.9890    -0.6533 C.ar    
  13 C13           -2.9983    -1.7837    -1.3290 C.ar    
  14 C14           -2.0086    -0.8369    -1.1483 C.ar    
  15 Cl15          -2.0864     0.6753    -1.9974 Cl      
  16 F16            0.1416    -2.5849     1.2244 F       
  17 N17            2.5359    -1.9706    -1.6737 N.am    
  18 C18            3.3252    -3.1087    -1.9215 C.2     
  19 C19            3.7014    -3.4943    -3.2007 C.2     
  20 C20            3.7765    -3.9009    -0.9420 C.2     
  21 S21            4.7212    -5.2135    -1.6330 S.3     
  22 C22            4.4494    -4.5971    -3.2574 C.2     
  23 S23            3.2266    -2.5958    -4.6401 S.o2    
  24 O24            3.5908    -1.2530    -4.3510 O.2     
  25 O25            3.8332    -3.3048    -5.7118 O.2     
  26 C26            1.4218    -2.7660    -4.7050 C.3     
  27 C27            0.8827    -2.0193    -5.9268 C.3     
  28 C28           -0.6396    -2.1628    -5.9815 C.3     
  29 H29            3.6273     2.3974     0.3752 H       
  30 H30            4.0379     0.7644     0.9522 H       
  31 H31            4.0249     1.1145    -0.7929 H       
  32 H32           -1.8455    -4.2010     0.7271 H       
  33 H33           -3.7174    -3.7238    -0.7952 H       
  34 H34           -3.8230    -1.5804    -1.9960 H       
  35 H35            2.1452    -1.4808    -2.4141 H       
  36 H36            3.5895    -3.7561     0.1118 H       
  37 H37            4.8303    -5.0440    -4.1638 H       
  38 H38            1.1587    -3.8212    -4.7788 H       
  39 H39            0.9843    -2.3450    -3.7997 H       
  40 H40            1.1457    -0.9641    -5.8530 H       
  41 H41            1.3201    -2.4403    -6.8321 H       
  42 H42           -0.9026    -3.2180    -6.0554 H       
  43 H43           -1.0770    -1.7418    -5.0763 H       
  44 H44           -1.0236    -1.6309    -6.8520 H       
@<TRIPOS>BOND
   1    1    2 2
   2    1    3 1
   3    2    8 1
   4    2    5 1
   5    3    4 1
   6    4    5 2
   7    4    9 1
   8    5    6 1
   9    6    7 2
  10    6   17 am
  11    8   10 ar
  12    8   14 ar
  13    9   29 1
  14    9   30 1
  15    9   31 1
  16   10   11 ar
  17   10   16 1
  18   11   12 ar
  19   11   32 1
  20   12   13 ar
  21   12   33 1
  22   13   14 ar
  23   13   34 1
  24   14   15 1
  25   17   18 1
  26   17   35 1
  27   18   19 1
  28   18   20 2
  29   19   23 1
  30   19   22 2
  31   20   21 1
  32   20   36 1
  33   21   22 1
  34   22   37 1
  35   23   24 2
  36   23   25 2
  37   23   26 1
  38   26   27 1
  39   26   38 1
  40   26   39 1
  41   27   28 1
  42   27   40 1
  43   27   41 1
  44   28   42 1
  45   28   43 1
  46   28   44 1

#	End of record

