#	Name: ASD03092866
#	Creating user name:	WinNT
#	Creation time:	15. 06. 2019 20:33

#	Modifying user name:	WinNT
#	Modification time:	15. 06. 2019 20:33

#	Program:	/corina/corina34_cracker 3.40 0067  02.08.2006

@<TRIPOS>MOLECULE
ASD03092866
  42   45    0    0    0
SMALL
NO_CHARGES


@<TRIPOS>ATOM
   1 F1            -0.5917    -0.0071     0.0129 F       
   2 C2            -0.5335     1.3426     0.0177 C.ar    
   3 C3            -1.6979     2.0857     0.0990 C.ar    
   4 C4            -1.6375     3.4669     0.1043 C.ar    
   5 C5            -0.4149     4.1070     0.0285 C.ar    
   6 C6            -0.3518     5.6126     0.0350 C.3     
   7 N7            -0.2409     6.0908     1.4153 N.pl3   
   8 C8            -0.1674     7.4474     1.6733 C.ar    
   9 N9            -0.0979     8.3061     0.6680 N.ar    
  10 C10           -0.0270     9.6075     0.8699 C.ar    
  11 C11           -0.0221    10.1356     2.1485 C.ar    
  12 C12           -0.0928     9.2851     3.2376 C.ar    
  13 C13           -0.1728     7.9079     3.0016 C.ar    
  14 C14           -0.2557     6.9569     4.1259 C.2     
  15 O15            0.7377     6.7015     4.7816 O.2     
  16 C16           -1.5366     6.3181     4.4543 C.2     
  17 C17           -2.7483     6.5726     3.8788 C.2     
  18 N18           -3.6971     5.7881     4.4435 N.pl3   
  19 H19           -4.6355     5.7911     4.1980 H       
  20 C20           -3.1407     4.9838     5.4171 C.ar    
  21 C21           -3.6681     4.0230     6.2730 C.ar    
  22 C22           -2.8433     3.3674     7.1631 C.ar    
  23 Cl23          -3.5079     2.1690     8.2290 Cl      
  24 C24           -1.4867     3.6567     7.2142 C.ar    
  25 C25           -0.9465     4.6057     6.3738 C.ar    
  26 C26           -1.7670     5.2706     5.4665 C.ar    
  27 C27            0.7504     3.3674    -0.0528 C.ar    
  28 C28            0.6937     1.9848    -0.0530 C.ar    
  29 F29            1.8322     1.2613    -0.1272 F       
  30 H30           -2.6540     1.5867     0.1579 H       
  31 H31           -2.5468     4.0464     0.1673 H       
  32 H32            0.5170     5.9424    -0.5347 H       
  33 H33           -1.2576     6.0162    -0.4176 H       
  34 H34           -0.2190     5.4559     2.1483 H       
  35 H35            0.0286    10.2732     0.0212 H       
  36 H36            0.0369    11.2040     2.2955 H       
  37 H37           -0.0904     9.6746     4.2449 H       
  38 H38           -2.9239     7.2915     3.0922 H       
  39 H39           -4.7224     3.7907     6.2410 H       
  40 H40           -0.8520     3.1361     7.9159 H       
  41 H41            0.1093     4.8295     6.4155 H       
  42 H42            1.7051     3.8687    -0.1120 H       
@<TRIPOS>BOND
   1    1    2 1
   2    2   28 ar
   3    2    3 ar
   4    3    4 ar
   5    3   30 1
   6    4    5 ar
   7    4   31 1
   8    5    6 1
   9    5   27 ar
  10    6    7 1
  11    6   32 1
  12    6   33 1
  13    7    8 1
  14    7   34 1
  15    8   13 ar
  16    8    9 ar
  17    9   10 ar
  18   10   11 ar
  19   10   35 1
  20   11   12 ar
  21   11   36 1
  22   12   13 ar
  23   12   37 1
  24   13   14 1
  25   14   15 2
  26   14   16 1
  27   16   26 1
  28   16   17 2
  29   17   18 1
  30   17   38 1
  31   18   19 1
  32   18   20 1
  33   20   26 ar
  34   20   21 ar
  35   21   22 ar
  36   21   39 1
  37   22   23 1
  38   22   24 ar
  39   24   25 ar
  40   24   40 1
  41   25   26 ar
  42   25   41 1
  43   27   28 ar
  44   27   42 1
  45   28   29 1

#	End of record

