#	Name: ASD08150308
#	Creating user name:	WinNT
#	Creation time:	15. 06. 2019 21:15

#	Modifying user name:	WinNT
#	Modification time:	15. 06. 2019 21:15

#	Program:	/corina/corina34_cracker 3.40 0067  02.08.2006

@<TRIPOS>MOLECULE
ASD08150308
  16   17    0    0    0
SMALL
NO_CHARGES


@<TRIPOS>ATOM
   1 O1            -0.0161     1.3327     0.0094 O.3     
   2 C2             0.0021    -0.0041     0.0020 C.2     
   3 N3             1.2335    -0.5301    -0.0132 N.am    
   4 C4             2.2214     0.5579    -0.0179 C.3     
   5 C5             1.3476     1.8421    -0.0009 C.3     
   6 O6             2.9632     1.9789     1.7273 O.3     
   7 C7             2.9499     0.5871     1.3432 C.3     
   8 C8             1.6596     2.4848     1.3679 C.3     
   9 O9            -1.0073    -0.6805     0.0090 O.2     
  10 H10            1.4404    -1.4778    -0.0198 H       
  11 H11            2.8982     0.5125    -0.8711 H       
  12 H12            1.5455     2.5036    -0.8443 H       
  13 H13            2.4036    -0.0039     2.0783 H       
  14 H14            3.9683     0.2135     1.2362 H       
  15 H15            1.6856     3.5709     1.2797 H       
  16 H16            0.9181     2.1813     2.1070 H       
@<TRIPOS>BOND
   1    1    2 1
   2    1    5 1
   3    2    3 am
   4    2    9 2
   5    3    4 1
   6    3   10 1
   7    4    5 1
   8    4    7 1
   9    4   11 1
  10    5    8 1
  11    5   12 1
  12    6    7 1
  13    6    8 1
  14    7   13 1
  15    7   14 1
  16    8   15 1
  17    8   16 1

#	End of record

