#	Name: ASD01510066
#	Creating user name:	WinNT
#	Creation time:	15. 06. 2019 19:21

#	Modifying user name:	WinNT
#	Modification time:	15. 06. 2019 19:21

#	Program:	/corina/corina34_cracker 3.40 0067  02.08.2006

@<TRIPOS>MOLECULE
ASD01510066
  31   32    0    0    0
SMALL
NO_CHARGES


@<TRIPOS>ATOM
   1 C1            -0.0173     1.4248     0.0099 C.3     
   2 O2             0.0021    -0.0041     0.0020 O.3     
   3 C3            -1.1971    -0.6358     0.0101 C.ar    
   4 N4            -2.3267     0.0643     0.0246 N.ar    
   5 C5            -3.5024    -0.5457     0.0321 C.ar    
   6 N6            -3.6012    -1.8665     0.0259 N.ar    
   7 C7            -2.5136    -2.6301     0.0114 C.ar    
   8 C8            -1.2616    -2.0249    -0.0026 C.ar    
   9 I9             0.4867    -3.1790    -0.0264 I       
  10 O10           -2.6232    -3.9811     0.0057 O.3     
  11 C11           -3.9447    -4.5248     0.0158 C.3     
  12 N12           -4.6575     0.2168     0.0473 N.3     
  13 C13           -5.8533    -0.6384     0.0535 C.3     
  14 C14           -7.1034     0.2421     0.1306 C.3     
  15 O15           -7.1010     1.1615    -0.9649 O.3     
  16 C16           -5.9508     2.0106    -1.0014 C.3     
  17 C17           -4.6890     1.1480    -1.0899 C.3     
  18 H18            1.0053     1.8021     0.0021 H       
  19 H19           -0.5445     1.7859    -0.8732 H       
  20 H20           -0.5275     1.7763     0.9067 H       
  21 H21           -4.4674    -4.1924     0.9127 H       
  22 H22           -4.4848    -4.1834    -0.8672 H       
  23 H23           -3.8897    -5.6134     0.0098 H       
  24 H24           -5.8815    -1.2314    -0.8606 H       
  25 H25           -5.8216    -1.3020     0.9177 H       
  26 H26           -7.9937    -0.3845     0.0779 H       
  27 H27           -7.1017     0.7951     1.0699 H       
  28 H28           -6.0075     2.6630    -1.8727 H       
  29 H29           -5.9156     2.6150    -0.0950 H       
  30 H30           -3.8075     1.7885    -1.0604 H       
  31 H31           -4.6986     0.5836    -2.0224 H       
@<TRIPOS>BOND
   1    1    2 1
   2    1   18 1
   3    1   19 1
   4    1   20 1
   5    2    3 1
   6    3    4 ar
   7    3    8 ar
   8    4    5 ar
   9    5    6 ar
  10    5   12 1
  11    6    7 ar
  12    7    8 ar
  13    7   10 1
  14    8    9 1
  15   10   11 1
  16   11   21 1
  17   11   22 1
  18   11   23 1
  19   12   13 1
  20   12   17 1
  21   13   14 1
  22   13   24 1
  23   13   25 1
  24   14   15 1
  25   14   26 1
  26   14   27 1
  27   15   16 1
  28   16   17 1
  29   16   28 1
  30   16   29 1
  31   17   30 1
  32   17   31 1

#	End of record

