#	Name: ASD01940308
#	Creating user name:	WinNT
#	Creation time:	15. 06. 2019 20:12

#	Modifying user name:	WinNT
#	Modification time:	15. 06. 2019 20:12

#	Program:	/corina/corina34_cracker 3.40 0067  02.08.2006

@<TRIPOS>MOLECULE
ASD01940308
  20   19    0    0    0
SMALL
NO_CHARGES


@<TRIPOS>ATOM
   1 C1            -0.0187     1.5258     0.0104 C.3     
   2 C2             0.0021    -0.0041     0.0020 C.3     
   3 C3             0.6310    -0.5127     1.3007 C.3     
   4 O4             1.3220     2.0204     0.0003 O.3     
   5 O5             2.0029    -0.1163     1.3527 O.3     
   6 C6            -1.4290    -0.5329    -0.1129 C.3     
   7 C7            -2.0061    -0.1347    -1.4468 C.2     
   8 C8            -1.9511    -0.9659    -2.4595 C.2     
   9 Br9           -2.8097     1.5637    -1.6603 Br      
  10 H10           -0.5459     1.8868    -0.8726 H       
  11 H11           -0.5289     1.8773     0.9072 H       
  12 H12            0.5883    -0.3548    -0.8473 H       
  13 H13            0.0981    -0.0900     2.1524 H       
  14 H14            0.5655    -1.6002     1.3345 H       
  15 H15            1.3852     2.9853     0.0049 H       
  16 H16            2.4659    -0.4054     2.1510 H       
  17 H17           -1.4225    -1.6197    -0.0297 H       
  18 H18           -2.0376    -0.1109     0.6869 H       
  19 H19           -1.4921    -1.9359    -2.3376 H       
  20 H20           -2.3646    -0.6805    -3.4155 H       
@<TRIPOS>BOND
   1    1    2 1
   2    1    4 1
   3    1   10 1
   4    1   11 1
   5    2    3 1
   6    2    6 1
   7    2   12 1
   8    3    5 1
   9    3   13 1
  10    3   14 1
  11    4   15 1
  12    5   16 1
  13    6    7 1
  14    6   17 1
  15    6   18 1
  16    7    8 2
  17    7    9 1
  18    8   19 1
  19    8   20 1

#	End of record

