#	Name: ASD02039218
#	Creating user name:	WinNT
#	Creation time:	15. 06. 2019 20:17

#	Modifying user name:	WinNT
#	Modification time:	15. 06. 2019 20:17

#	Program:	/corina/corina34_cracker 3.40 0067  02.08.2006

@<TRIPOS>MOLECULE
ASD02039218
  38   41    0    0    0
SMALL
NO_CHARGES


@<TRIPOS>ATOM
   1 N1             0.0019     1.2625     0.3694 N.2     
   2 C2             0.0063    -0.0135     0.0890 C.2     
   3 N3             1.2922    -0.3753    -0.1075 N.2     
   4 C4             1.9959     0.7161     0.0679 C.2     
   5 O5             1.1349     1.6954     0.3613 O.3     
   6 C6             3.4936     0.8431    -0.0406 C.3     
   7 N7            -1.1049    -0.8433     0.0081 N.pl3   
   8 C8            -2.3915    -0.3042     0.1284 C.ar    
   9 C9            -2.6367     1.0037    -0.2691 C.ar    
  10 C10           -3.9058     1.5351    -0.1502 C.ar    
  11 C11           -4.9359     0.7635     0.3665 C.ar    
  12 C12           -4.6923    -0.5438     0.7641 C.ar    
  13 C13           -3.4240    -1.0788     0.6400 C.ar    
  14 C14            3.8669     1.1888    -1.4591 C.ar    
  15 C15            4.1110     0.1937    -2.3693 C.ar    
  16 C16            3.9598     2.5164    -1.8521 C.ar    
  17 N17            4.2825     2.8496    -3.0829 N.ar    
  18 C18            4.5349     1.9301    -4.0063 C.ar    
  19 C19            4.4540     0.5625    -3.6751 C.ar    
  20 Cl20          -5.9822    -1.5090     1.4108 Cl      
  21 N21            4.8833     1.9913    -5.3281 N.pl3   
  22 N22            5.0263     0.6930    -5.8272 N.2     
  23 C23            4.7822    -0.1766    -4.8889 C.2     
  24 O24           -6.1853     1.2882     0.4839 O.3     
  25 C25           -6.3642     2.6397     0.0558 C.3     
  26 F26           -5.5319     3.4798     0.8033 F       
  27 F27           -6.0377     2.7464    -1.3004 F       
  28 H28            3.8409     1.6302     0.6286 H       
  29 H29            3.9595    -0.1022     0.2376 H       
  30 H30           -0.9894    -1.7962    -0.1318 H       
  31 H31           -1.8348     1.6052    -0.6709 H       
  32 H32           -4.0962     2.5523    -0.4595 H       
  33 H33           -3.2341    -2.0960     0.9493 H       
  34 H34            4.0410    -0.8463    -2.0867 H       
  35 H35            3.7620     3.2948    -1.1301 H       
  36 H36            5.0107     2.8064    -5.8382 H       
  37 H37            4.8180    -1.2512    -4.9908 H       
  38 H38           -7.4036     2.9330     0.2034 H       
@<TRIPOS>BOND
   1    1    2 2
   2    1    5 1
   3    2    3 1
   4    2    7 1
   5    3    4 2
   6    4    5 1
   7    4    6 1
   8    6   14 1
   9    6   28 1
  10    6   29 1
  11    7    8 1
  12    7   30 1
  13    8    9 ar
  14    8   13 ar
  15    9   10 ar
  16    9   31 1
  17   10   11 ar
  18   10   32 1
  19   11   12 ar
  20   11   24 1
  21   12   13 ar
  22   12   20 1
  23   13   33 1
  24   14   16 ar
  25   14   15 ar
  26   15   19 ar
  27   15   34 1
  28   16   17 ar
  29   16   35 1
  30   17   18 ar
  31   18   19 ar
  32   18   21 1
  33   19   23 1
  34   21   22 1
  35   21   36 1
  36   22   23 2
  37   23   37 1
  38   24   25 1
  39   25   26 1
  40   25   27 1
  41   25   38 1

#	End of record

