#	Name: ASD01890125
#	Creating user name:	WinNT
#	Creation time:	15. 06. 2019 19:50

#	Modifying user name:	WinNT
#	Modification time:	15. 06. 2019 19:50

#	Program:	/corina/corina34_cracker 3.40 0067  02.08.2006

@<TRIPOS>MOLECULE
ASD01890125
  55   57    0    0    0
SMALL
NO_CHARGES


@<TRIPOS>ATOM
   1 C1             0.0436     1.6083     0.2258 C.2     
   2 C2             0.0612     0.1083     0.0823 C.3     
   3 C3             1.4858    -0.3682    -0.0376 C.2     
   4 O4             0.9028     2.1639     0.8685 O.2     
   5 O5            -0.9234     2.3278    -0.3650 O.3     
   6 O6             1.9357    -1.1387     0.7772 O.2     
   7 O7             2.2550     0.0633    -1.0495 O.3     
   8 C8            -0.5881    -0.5293     1.3123 C.3     
   9 C9            -1.9851     0.0607     1.5151 C.3     
  10 C10           -2.5663    -0.4566     2.8057 C.2     
  11 C11           -0.6966    -2.0185     1.1079 C.ar    
  12 C12           -0.0648    -2.8838     1.9813 C.ar    
  13 C13           -0.1643    -4.2498     1.7939 C.ar    
  14 C14           -0.8959    -4.7504     0.7332 C.ar    
  15 C15           -1.5284    -3.8850    -0.1398 C.ar    
  16 C16           -1.4325    -2.5191     0.0502 C.ar    
  17 O17           -1.9256    -1.2227     3.4960 O.2     
  18 N18           -5.8495     0.9540     3.2442 N.pl3   
  19 C19           -4.7078     0.8091     2.5447 C.2     
  20 C20           -3.8610    -0.0489     3.2135 C.2     
  21 C21           -4.5738    -0.4573     4.4399 C.ar    
  22 C22           -4.2598    -1.2930     5.5079 C.ar    
  23 C23           -5.1702    -1.4686     6.5273 C.ar    
  24 C24           -6.3943    -0.8169     6.4916 C.ar    
  25 C25           -6.7177     0.0126     5.4402 C.ar    
  26 C26           -5.8115     0.2031     4.4016 C.ar    
  27 C27           -0.8776     3.7677    -0.1842 C.3     
  28 C28           -2.0510     4.4123    -0.9247 C.3     
  29 C29            3.6170    -0.4372    -1.1021 C.3     
  30 C30            4.3336     0.1609    -2.3144 C.3     
  31 H31           -0.4940    -0.1778    -0.8110 H       
  32 H32            0.0231    -0.3269     2.1918 H       
  33 H33           -1.9177     1.1478     1.5570 H       
  34 H34           -2.6272    -0.2318     0.6844 H       
  35 H35            0.5067    -2.4927     2.8100 H       
  36 H36            0.3298    -4.9259     2.4759 H       
  37 H37           -0.9731    -5.8176     0.5863 H       
  38 H38           -2.0997    -4.2761    -0.9687 H       
  39 H39           -1.9297    -1.8431    -0.6296 H       
  40 H40           -6.5948     1.5128     2.9736 H       
  41 H41           -4.4893     1.2909     1.6032 H       
  42 H42           -3.3075    -1.8015     5.5372 H       
  43 H43           -4.9299    -2.1166     7.3572 H       
  44 H44           -7.1007    -0.9614     7.2956 H       
  45 H45           -7.6735     0.5152     5.4224 H       
  46 H46           -0.9451     4.0028     0.8780 H       
  47 H47            0.0602     4.1544    -0.5830 H       
  48 H48           -1.9836     4.1772    -1.9869 H       
  49 H49           -2.9889     4.0257    -0.5259 H       
  50 H50           -2.0167     5.4933    -0.7890 H       
  51 H51            4.1441    -0.1526    -0.1915 H       
  52 H52            3.6016    -1.5237    -1.1886 H       
  53 H53            3.8064    -0.1237    -3.2250 H       
  54 H54            4.3489     1.2473    -2.2279 H       
  55 H55            5.3560    -0.2149    -2.3540 H       
@<TRIPOS>BOND
   1    1    2 1
   2    1    4 2
   3    1    5 1
   4    2    3 1
   5    2    8 1
   6    2   31 1
   7    3    6 2
   8    3    7 1
   9    5   27 1
  10    7   29 1
  11    8    9 1
  12    8   11 1
  13    8   32 1
  14    9   10 1
  15    9   33 1
  16    9   34 1
  17   10   17 2
  18   10   20 1
  19   11   12 ar
  20   11   16 ar
  21   12   13 ar
  22   12   35 1
  23   13   14 ar
  24   13   36 1
  25   14   15 ar
  26   14   37 1
  27   15   16 ar
  28   15   38 1
  29   16   39 1
  30   18   19 1
  31   18   26 1
  32   18   40 1
  33   19   20 2
  34   19   41 1
  35   20   21 1
  36   21   22 ar
  37   21   26 ar
  38   22   23 ar
  39   22   42 1
  40   23   24 ar
  41   23   43 1
  42   24   25 ar
  43   24   44 1
  44   25   26 ar
  45   25   45 1
  46   27   28 1
  47   27   46 1
  48   27   47 1
  49   28   48 1
  50   28   49 1
  51   28   50 1
  52   29   30 1
  53   29   51 1
  54   29   52 1
  55   30   53 1
  56   30   54 1
  57   30   55 1

#	End of record

