#	Name: ASD03540103
#	Creating user name:	WinNT
#	Creation time:	15. 06. 2019 20:42

#	Modifying user name:	WinNT
#	Modification time:	15. 06. 2019 20:42

#	Program:	/corina/corina34_cracker 3.40 0067  02.08.2006

@<TRIPOS>MOLECULE
ASD03540103
  82   90    0    0    0
SMALL
NO_CHARGES


@<TRIPOS>ATOM
   1 C1            -0.5378     5.5113     0.2104 C.2     
   2 C2             0.3398     6.6332    -0.1781 C.ar    
   3 C3             0.0502     7.9258     0.2538 C.ar    
   4 C4             0.8815     8.9804    -0.1151 C.ar    
   5 C5             0.5825    10.3526     0.3383 C.2     
   6 C6             2.0053     8.7333    -0.9195 C.ar    
   7 C7             2.2844     7.4406    -1.3443 C.ar    
   8 C8             1.4654     6.3975    -0.9751 C.ar    
   9 O9            -1.7072     5.5108    -0.1223 O.2     
  10 N10           -0.0412     4.4849     0.9290 N.am    
  11 O11            1.3098    11.2717     0.0149 O.2     
  12 N12           -0.4967    10.5870     1.1108 N.am    
  13 O13            2.8172     9.7557    -1.2817 O.3     
  14 C14            3.9423     9.4317    -2.1010 C.3     
  15 C15            1.3907     4.4290     1.2334 C.3     
  16 O16            2.2424     4.4634     6.7900 O.3     
  17 C17            2.5764     5.8585     6.9134 C.3     
  18 O18            3.0599     6.2117     5.6039 O.3     
  19 C19            2.4418     5.3514     4.7430 C.ar    
  20 C20            1.9391     4.2764     5.4723 C.ar    
  21 C21            2.2617     5.3970     3.3703 C.ar    
  22 C22            1.5851     4.3772     2.7269 C.ar    
  23 C23            1.0863     3.3105     3.4507 C.ar    
  24 C24            1.2625     3.2582     4.8211 C.ar    
  25 O25            3.8609    -0.0552    -1.0886 O.3     
  26 C26            5.2077     0.2476    -0.6791 C.3     
  27 O27            5.1971     1.6760    -0.4978 O.3     
  28 C28            3.9071     1.9941    -0.1847 C.ar    
  29 C29            3.0855     0.9295    -0.5480 C.ar    
  30 C30            3.3541     3.1254     0.3922 C.ar    
  31 C31            1.9899     3.1969     0.6058 C.ar    
  32 C32            1.1746     2.1405     0.2454 C.ar    
  33 C33            1.7197     1.0081    -0.3312 C.ar    
  34 C34           -0.9334     3.4252     1.4058 C.3     
  35 C35           -1.9588     4.0143     2.3399 C.ar    
  36 C36           -1.6308     2.7893     0.2309 C.ar    
  37 C37           -3.2972     3.7080     2.1768 C.ar    
  38 C38           -4.2415     4.2483     3.0342 C.ar    
  39 C39           -3.8388     5.1002     4.0601 C.ar    
  40 C40           -2.4963     5.4029     4.2173 C.ar    
  41 C41           -1.5586     4.8551     3.3614 C.ar    
  42 C42           -1.5419     3.3695    -1.0205 C.ar    
  43 C43           -2.1799     2.7899    -2.1015 C.ar    
  44 C44           -2.9109     1.6255    -1.9324 C.ar    
  45 C45           -3.0005     1.0408    -0.6713 C.ar    
  46 C46           -2.3536     1.6237     0.4060 C.ar    
  47 O47           -5.5983     4.1097     3.0896 O.3     
  48 C48           -5.9770     4.5568     4.4049 C.3     
  49 O49           -4.9434     5.4950     4.7581 O.3     
  50 O50           -3.6222     0.8668    -2.8165 O.3     
  51 C51           -3.8081    -0.4056    -2.1685 C.3     
  52 O52           -3.7680    -0.0841    -0.7656 O.3     
  53 H53           -0.8160     8.1094     0.8721 H       
  54 H54            3.1492     7.2527    -1.9633 H       
  55 H55            1.6902     5.3940    -1.3053 H       
  56 H56           -1.0770     9.8537     1.3688 H       
  57 H57           -0.6932    11.4889     1.4088 H       
  58 H58            4.5815     8.7218    -1.5761 H       
  59 H59            3.5962     8.9877    -3.0344 H       
  60 H60            4.5072    10.3383    -2.3174 H       
  61 H61            1.8821     5.3160     0.8336 H       
  62 H62            1.6917     6.4432     7.1655 H       
  63 H63            3.3567     6.0009     7.6610 H       
  64 H64            2.6500     6.2295     2.8024 H       
  65 H65            0.5580     2.5159     2.9447 H       
  66 H66            0.8717     2.4235     5.3841 H       
  67 H67            5.4453    -0.2557     0.2581 H       
  68 H68            5.9171    -0.0345    -1.4571 H       
  69 H69            3.9888     3.9521     0.6752 H       
  70 H70            0.1096     2.1999     0.4141 H       
  71 H71            1.0803     0.1842    -0.6119 H       
  72 H72           -0.3511     2.6706     1.9346 H       
  73 H73           -3.6066     3.0475     1.3803 H       
  74 H74           -2.1813     6.0633     5.0117 H       
  75 H75           -0.5123     5.0919     3.4857 H       
  76 H76           -0.9730     4.2778    -1.1541 H       
  77 H77           -2.1087     3.2454    -3.0782 H       
  78 H78           -2.4214     1.1725     1.3849 H       
  79 H79           -6.9486     5.0500     4.3768 H       
  80 H80           -5.9907     3.7209     5.1044 H       
  81 H81           -4.7742    -0.8339    -2.4358 H       
  82 H82           -2.9999    -1.0893    -2.4281 H       
@<TRIPOS>BOND
   1    1    2 1
   2    1    9 2
   3    1   10 am
   4    2    3 ar
   5    2    8 ar
   6    3    4 ar
   7    3   53 1
   8    4    5 1
   9    4    6 ar
  10    5   11 2
  11    5   12 am
  12    6    7 ar
  13    6   13 1
  14    7    8 ar
  15    7   54 1
  16    8   55 1
  17   10   15 1
  18   10   34 1
  19   12   56 1
  20   12   57 1
  21   13   14 1
  22   14   58 1
  23   14   59 1
  24   14   60 1
  25   15   22 1
  26   15   31 1
  27   15   61 1
  28   16   17 1
  29   16   20 1
  30   17   18 1
  31   17   62 1
  32   17   63 1
  33   18   19 1
  34   19   20 ar
  35   19   21 ar
  36   20   24 ar
  37   21   22 ar
  38   21   64 1
  39   22   23 ar
  40   23   24 ar
  41   23   65 1
  42   24   66 1
  43   25   26 1
  44   25   29 1
  45   26   27 1
  46   26   67 1
  47   26   68 1
  48   27   28 1
  49   28   29 ar
  50   28   30 ar
  51   29   33 ar
  52   30   31 ar
  53   30   69 1
  54   31   32 ar
  55   32   33 ar
  56   32   70 1
  57   33   71 1
  58   34   35 1
  59   34   36 1
  60   34   72 1
  61   35   37 ar
  62   35   41 ar
  63   36   42 ar
  64   36   46 ar
  65   37   38 ar
  66   37   73 1
  67   38   39 ar
  68   38   47 1
  69   39   40 ar
  70   39   49 1
  71   40   41 ar
  72   40   74 1
  73   41   75 1
  74   42   43 ar
  75   42   76 1
  76   43   44 ar
  77   43   77 1
  78   44   45 ar
  79   44   50 1
  80   45   46 ar
  81   45   52 1
  82   46   78 1
  83   47   48 1
  84   48   49 1
  85   48   79 1
  86   48   80 1
  87   50   51 1
  88   51   52 1
  89   51   81 1
  90   51   82 1

#	End of record

