#	Name: ASD02198138
#	Creating user name:	WinNT
#	Creation time:	15. 06. 2019 20:18

#	Modifying user name:	WinNT
#	Modification time:	15. 06. 2019 20:18

#	Program:	/corina/corina34_cracker 3.40 0067  02.08.2006

@<TRIPOS>MOLECULE
ASD02198138
  45   48    0    0    0
SMALL
NO_CHARGES


@<TRIPOS>ATOM
   1 C1            -0.0176     1.3653    -0.0370 C.2     
   2 C2             0.0040    -0.0130    -0.0476 C.2     
   3 C3            -1.1841    -0.8124    -0.0590 C.1     
   4 S4             1.5657     1.9977    -0.0258 S.3     
   5 C5             2.2776     0.3922    -0.0354 C.2     
   6 C6             1.2869    -0.5582    -0.0467 C.2     
   7 C7             3.6610     0.1199    -0.0327 C.2     
   8 C8             4.6312     1.2262    -0.1479 C.2     
   9 O9             4.0560    -1.0300     0.0649 O.2     
  10 N10            1.5371    -1.9224    -0.0558 N.pl3   
  11 N11           -1.1626     2.1279    -0.0410 N.pl3   
  12 N12           -2.1266    -1.4465    -0.0680 N.1     
  13 C13            5.1513     2.0137     0.8464 C.2     
  14 C14           -1.0690     3.5899    -0.0288 C.3     
  15 C15           -2.3392     4.2152    -0.6470 C.3     
  16 O16            5.9850     2.8737     0.2545 O.3     
  17 N17            6.0507     2.7297    -0.9416 N.2     
  18 C18            5.2863     1.7538    -1.3623 C.2     
  19 C19            5.1079     1.2860    -2.7585 C.ar    
  20 C20            5.1356     2.1991    -3.8110 C.ar    
  21 C21            4.9695     1.7582    -5.1082 C.ar    
  22 C22            4.7758     0.4128    -5.3646 C.ar    
  23 C23            4.7469    -0.4979    -4.3238 C.ar    
  24 C24            4.9176    -0.0690    -3.0232 C.ar    
  25 C25            4.8426     1.9268     2.3189 C.3     
  26 C26           -2.6789     5.3313     0.3670 C.3     
  27 O27           -2.1204     4.8587     1.6286 O.3     
  28 C28           -1.0376     4.1038     1.3942 C.2     
  29 O29           -0.1674     3.8686     2.1987 O.2     
  30 H30            2.4509    -2.2479    -0.0544 H       
  31 H31            0.7984    -2.5510    -0.0637 H       
  32 H32           -2.0318     1.6977    -0.0519 H       
  33 H33           -0.1822     3.9171    -0.5717 H       
  34 H34           -2.1262     4.6354    -1.6299 H       
  35 H35           -3.1447     3.4830    -0.7028 H       
  36 H36            5.2865     3.2499    -3.6119 H       
  37 H37            4.9905     2.4649    -5.9246 H       
  38 H38            4.6462     0.0721    -6.3813 H       
  39 H39            4.5946    -1.5471    -4.5298 H       
  40 H40            4.8949    -0.7809    -2.2114 H       
  41 H41            5.4817     1.1740     2.7803 H       
  42 H42            5.0253     2.8945     2.7862 H       
  43 H43            3.7974     1.6491     2.4552 H       
  44 H44           -2.2103     6.2699     0.0712 H       
  45 H45           -3.7587     5.4537     0.4509 H       
@<TRIPOS>BOND
   1    1    2 2
   2    1    4 1
   3    1   11 1
   4    2    3 1
   5    2    6 1
   6    3   12 3
   7    4    5 1
   8    5    6 2
   9    5    7 1
  10    6   10 1
  11    7    8 1
  12    7    9 2
  13    8   13 2
  14    8   18 1
  15   10   30 1
  16   10   31 1
  17   11   14 1
  18   11   32 1
  19   13   16 1
  20   13   25 1
  21   14   15 1
  22   14   28 1
  23   14   33 1
  24   15   26 1
  25   15   34 1
  26   15   35 1
  27   16   17 1
  28   17   18 2
  29   18   19 1
  30   19   20 ar
  31   19   24 ar
  32   20   21 ar
  33   20   36 1
  34   21   22 ar
  35   21   37 1
  36   22   23 ar
  37   22   38 1
  38   23   24 ar
  39   23   39 1
  40   24   40 1
  41   25   41 1
  42   25   42 1
  43   25   43 1
  44   26   27 1
  45   26   44 1
  46   26   45 1
  47   27   28 1
  48   28   29 2

#	End of record

