#	Name: ASD03090057
#	Creating user name:	WinNT
#	Creation time:	15. 06. 2019 20:28

#	Modifying user name:	WinNT
#	Modification time:	15. 06. 2019 20:28

#	Program:	/corina/corina34_cracker 3.40 0067  02.08.2006

@<TRIPOS>MOLECULE
ASD03090057
  39   41    0    0    0
SMALL
NO_CHARGES


@<TRIPOS>ATOM
   1 N1            -0.0141     1.3320    -0.4371 N.am    
   2 C2            -0.0063     0.1175     0.1472 C.2     
   3 O3             0.9956    -0.2799     0.7099 O.2     
   4 N4            -1.1090    -0.6564     0.1077 N.am    
   5 S5            -2.4147    -3.0082     0.7481 S.3     
   6 C6            -1.1008    -1.9096     0.7106 C.2     
   7 N7            -0.0956    -2.4413     1.3383 N.2     
   8 N8            -0.2547    -3.5931     1.8302 N.2     
   9 C9            -1.4161    -4.1404     1.6605 C.2     
  10 C10           -1.8384    -5.5004     2.1536 C.3     
  11 F11           -0.8156    -6.0525     2.9322 F       
  12 F12           -2.9979    -5.3768     2.9266 F       
  13 F13           -2.0938    -6.3344     1.0598 F       
  14 C14            1.0943     2.1756    -0.3116 C.ar    
  15 C15            0.9161     3.5637    -0.2376 C.ar    
  16 C16            2.0273     4.3971    -0.1120 C.ar    
  17 C17            3.2976     3.8495    -0.0613 C.ar    
  18 C18            3.4679     2.4736    -0.1351 C.ar    
  19 C19            2.3720     1.6406    -0.2543 C.ar    
  20 S20           -0.8207     5.8612    -0.3508 S.3     
  21 C21           -0.4426     4.1415    -0.2928 C.2     
  22 N22           -1.5535     3.4612    -0.3069 N.2     
  23 C23           -2.6726     4.1471    -0.3584 C.2     
  24 C24           -2.5403     5.4769    -0.3908 C.2     
  25 O25            4.3816     4.6613     0.0606 O.3     
  26 C26            5.6628     4.0302     0.1069 C.3     
  27 C27            6.7517     5.0962     0.2448 C.3     
  28 H28           -0.7870     1.6194    -0.9480 H       
  29 H29           -1.9082    -0.3394    -0.3412 H       
  30 H30            1.8970     5.4677    -0.0548 H       
  31 H31            4.4615     2.0521    -0.0950 H       
  32 H32            2.5113     0.5709    -0.3066 H       
  33 H33           -3.6396     3.6665    -0.3741 H       
  34 H34           -3.3481     6.1925    -0.4335 H       
  35 H35            5.7047     3.3553     0.9618 H       
  36 H36            5.8225     3.4644    -0.8109 H       
  37 H37            6.7098     5.7711    -0.6101 H       
  38 H38            6.5920     5.6621     1.1627 H       
  39 H39            7.7290     4.6148     0.2802 H       
@<TRIPOS>BOND
   1    1    2 am
   2    1   14 1
   3    1   28 1
   4    2    3 2
   5    2    4 am
   6    4    6 1
   7    4   29 1
   8    5    6 1
   9    5    9 1
  10    6    7 2
  11    7    8 1
  12    8    9 2
  13    9   10 1
  14   10   11 1
  15   10   12 1
  16   10   13 1
  17   14   15 ar
  18   14   19 ar
  19   15   16 ar
  20   15   21 1
  21   16   17 ar
  22   16   30 1
  23   17   18 ar
  24   17   25 1
  25   18   19 ar
  26   18   31 1
  27   19   32 1
  28   20   21 1
  29   20   24 1
  30   21   22 2
  31   22   23 1
  32   23   24 2
  33   23   33 1
  34   24   34 1
  35   25   26 1
  36   26   27 1
  37   26   35 1
  38   26   36 1
  39   27   37 1
  40   27   38 1
  41   27   39 1

#	End of record

