#	Name: ASD01940113
#	Creating user name:	WinNT
#	Creation time:	15. 06. 2019 20:11

#	Modifying user name:	WinNT
#	Modification time:	15. 06. 2019 20:11

#	Program:	/corina/corina34_cracker 3.40 0067  02.08.2006

@<TRIPOS>MOLECULE
ASD01940113
  36   37    0    0    0
SMALL
NO_CHARGES


@<TRIPOS>ATOM
   1 C1             0.2188     1.4316    -0.1850 C.3     
   2 F2            -2.1546    -4.9614     0.2193 F       
   3 C3            -1.2375    -5.3049     1.1500 C.ar    
   4 C4             0.0937    -4.9494     0.9783 C.ar    
   5 C5             1.0362    -5.3061     1.9412 C.ar    
   6 C6             0.6405    -6.0143     3.0661 C.ar    
   7 C7            -0.6866    -6.3657     3.2319 C.ar    
   8 C8            -1.6256    -6.0076     2.2796 C.ar    
   9 N9             0.4887    -4.2340    -0.1607 N.pl3   
  10 N10            2.3811    -4.9503     1.7729 N.am    
  11 C11            0.4223    -2.8383    -0.1669 C.ar    
  12 C12            0.0314    -2.1549     0.9771 C.ar    
  13 C13           -0.0336    -0.7750     0.9675 C.ar    
  14 C14            0.2907    -0.0737    -0.1790 C.ar    
  15 C15            0.6805    -0.7502    -1.3208 C.ar    
  16 C16            0.7530    -2.1299    -1.3170 C.ar    
  17 Cl17           1.2423    -2.9787    -2.7501 Cl      
  18 F18           -2.9218    -6.3486     2.4493 F       
  19 S19            3.5785    -5.9728     2.2857 S.o2    
  20 O20            4.7811    -5.3419     1.8672 O.2     
  21 O21            3.2992    -6.1761     3.6640 O.2     
  22 C22            3.3015    -7.5007     1.3479 C.3     
  23 O23            4.2878    -8.4685     1.7120 O.3     
  24 H24            1.1812     1.8425     0.1201 H       
  25 H25           -0.0231     1.7799    -1.1891 H       
  26 H26           -0.5536     1.7612     0.5098 H       
  27 H27            1.3695    -6.2918     3.8131 H       
  28 H28           -0.9921    -6.9171     4.1087 H       
  29 H29            0.8081    -4.7079    -0.9444 H       
  30 H30            2.6106    -4.1051     1.3559 H       
  31 H31           -0.2221    -2.7017     1.8733 H       
  32 H32           -0.3376    -0.2433     1.8570 H       
  33 H33            0.9325    -0.1993    -2.2149 H       
  34 H34            2.3090    -7.8907     1.5737 H       
  35 H35            3.3751    -7.2905     0.2809 H       
  36 H36            4.2006    -9.3125     1.2482 H       
@<TRIPOS>BOND
   1    1   14 1
   2    1   24 1
   3    1   25 1
   4    1   26 1
   5    2    3 1
   6    3    4 ar
   7    3    8 ar
   8    4    5 ar
   9    4    9 1
  10    5    6 ar
  11    5   10 1
  12    6    7 ar
  13    6   27 1
  14    7    8 ar
  15    7   28 1
  16    8   18 1
  17    9   11 1
  18    9   29 1
  19   10   19 am
  20   10   30 1
  21   11   12 ar
  22   11   16 ar
  23   12   13 ar
  24   12   31 1
  25   13   14 ar
  26   13   32 1
  27   14   15 ar
  28   15   16 ar
  29   15   33 1
  30   16   17 1
  31   19   20 2
  32   19   21 2
  33   19   22 1
  34   22   23 1
  35   22   34 1
  36   22   35 1
  37   23   36 1

#	End of record

