#	Name: ASD07930920
#	Creating user name:	WinNT
#	Creation time:	15. 06. 2019 21:13

#	Modifying user name:	WinNT
#	Modification time:	15. 06. 2019 21:13

#	Program:	/corina/corina34_cracker 3.40 0067  02.08.2006

@<TRIPOS>MOLECULE
ASD07930920
  14   14    0    0    0
SMALL
NO_CHARGES


@<TRIPOS>ATOM
   1 C1            -0.0169     1.3924     0.0097 C.ar    
   2 C2             0.0021    -0.0041     0.0020 C.ar    
   3 C3             1.2257    -0.6608    -0.0132 C.ar    
   4 C4             2.3838     0.1005    -0.0203 C.ar    
   5 C5             2.2886     1.4851    -0.0119 C.ar    
   6 N6             1.1182     2.0824     0.0026 N.ar    
   7 C7            -1.3104     2.1084     0.0197 C.2     
   8 O8            -2.3511     1.4822     0.0212 O.2     
   9 O9            -1.3346     3.4552     0.0271 O.3     
  10 F10           -1.1525    -0.7055     0.0098 F       
  11 Br11           4.0779    -0.7395    -0.0404 Br      
  12 H12            1.2736    -1.7397    -0.0191 H       
  13 H13            3.1897     2.0804    -0.0174 H       
  14 H14           -2.2040     3.8786     0.0336 H       
@<TRIPOS>BOND
   1    1    2 ar
   2    1    6 ar
   3    1    7 1
   4    2    3 ar
   5    2   10 1
   6    3    4 ar
   7    3   12 1
   8    4    5 ar
   9    4   11 1
  10    5    6 ar
  11    5   13 1
  12    7    8 2
  13    7    9 1
  14    9   14 1

#	End of record

