#	Name: ASD01410437
#	Creating user name:	WinNT
#	Creation time:	15. 06. 2019 19:17

#	Modifying user name:	WinNT
#	Modification time:	15. 06. 2019 19:17

#	Program:	/corina/corina34_cracker 3.40 0067  02.08.2006

@<TRIPOS>MOLECULE
ASD01410437
  56   60    0    0    0
SMALL
NO_CHARGES


@<TRIPOS>ATOM
   1 C1            -2.5984     4.6066    -2.8193 C.ar    
   2 C2            -3.2429     4.1452    -3.9659 C.ar    
   3 C3            -4.3104     3.2772    -3.8554 C.ar    
   4 C4            -4.7435     2.8631    -2.6096 C.ar    
   5 C5            -4.1075     3.3182    -1.4627 C.ar    
   6 C6            -3.0313     4.1853    -1.5649 C.ar    
   7 C7            -2.3394     4.6806    -0.3212 C.3     
   8 O8            -4.5369     2.9094    -0.2400 O.3     
   9 C9            -5.5668     2.0237    -0.1886 C.ar    
  10 C10           -5.3253     0.6683    -0.3957 C.ar    
  11 C11           -6.3572    -0.2447    -0.3474 C.ar    
  12 C12           -7.6500     0.1898    -0.0895 C.ar    
  13 C13           -7.8972     1.5590     0.1207 C.ar    
  14 C14           -6.8481     2.4731     0.0748 C.ar    
  15 F15           -2.4345     3.7111     0.6829 F       
  16 F16           -0.9919     4.9281    -0.6043 F       
  17 F17           -2.9495     5.8625     0.1126 F       
  18 N18           -8.7171    -0.6863    -0.0315 N.pl3   
  19 C19           -9.9578    -0.2345     0.2195 C.2     
  20 N20          -10.2374     1.0235     0.4209 N.2     
  21 C21           -9.2852     1.9749     0.3908 C.2     
  22 O22           -9.5630     3.1464     0.5815 O.2     
  23 C23           -8.4945    -2.1184    -0.2457 C.3     
  24 C24           -8.3199    -2.8042     1.0848 C.ar    
  25 C25           -9.4305    -3.1873     1.8170 C.ar    
  26 C26           -9.2702    -3.8172     3.0393 C.ar    
  27 C27           -7.9992    -4.0644     3.5291 C.ar    
  28 C28           -6.8886    -3.6821     2.7964 C.ar    
  29 C29           -7.0489    -3.0561     1.5721 C.ar    
  30 F30           -5.9651    -2.6830     0.8571 F       
  31 F31           -7.8427    -4.6784     4.7223 F       
  32 F32          -10.6709    -2.9460     1.3391 F       
  33 C33           -1.4502     5.5395    -2.9355 C.ar    
  34 C34           -1.4130     6.7134    -2.1859 C.ar    
  35 N35           -0.3942     7.5420    -2.2878 N.ar    
  36 C36            0.6220     7.3000    -3.0933 C.ar    
  37 C37            0.6591     6.1569    -3.8704 C.ar    
  38 C38           -0.3860     5.2520    -3.7941 C.ar    
  39 C39            1.7602     8.2850    -3.1681 C.3     
  40 H40           -2.9072     4.4671    -4.9406 H       
  41 H41           -4.8089     2.9208    -4.7448 H       
  42 H42           -5.5792     2.1838    -2.5284 H       
  43 H43           -4.3199     0.3288    -0.5965 H       
  44 H44           -6.1604    -1.2941    -0.5100 H       
  45 H45           -7.0343     3.5247     0.2356 H       
  46 H46          -10.7655    -0.9504     0.2560 H       
  47 H47           -9.3523    -2.5458    -0.7650 H       
  48 H48           -7.5973    -2.2605    -0.8482 H       
  49 H49          -10.1366    -4.1154     3.6109 H       
  50 H50           -5.8970    -3.8747     3.1787 H       
  51 H51           -2.2271     6.9462    -1.5155 H       
  52 H52            1.4962     5.9700    -4.5267 H       
  53 H53           -0.3830     4.3511    -4.3897 H       
  54 H54            2.5165     8.0232    -2.4281 H       
  55 H55            2.2012     8.2556    -4.1644 H       
  56 H56            1.3860     9.2886    -2.9658 H       
@<TRIPOS>BOND
   1    1    2 ar
   2    1   33 1
   3    1    6 ar
   4    2    3 ar
   5    2   40 1
   6    3    4 ar
   7    3   41 1
   8    4    5 ar
   9    4   42 1
  10    5    6 ar
  11    5    8 1
  12    6    7 1
  13    7   15 1
  14    7   16 1
  15    7   17 1
  16    8    9 1
  17    9   10 ar
  18    9   14 ar
  19   10   11 ar
  20   10   43 1
  21   11   12 ar
  22   11   44 1
  23   12   13 ar
  24   12   18 1
  25   13   14 ar
  26   13   21 1
  27   14   45 1
  28   18   19 1
  29   18   23 1
  30   19   20 2
  31   19   46 1
  32   20   21 1
  33   21   22 2
  34   23   24 1
  35   23   47 1
  36   23   48 1
  37   24   25 ar
  38   24   29 ar
  39   25   26 ar
  40   25   32 1
  41   26   27 ar
  42   26   49 1
  43   27   28 ar
  44   27   31 1
  45   28   29 ar
  46   28   50 1
  47   29   30 1
  48   33   34 ar
  49   33   38 ar
  50   34   35 ar
  51   34   51 1
  52   35   36 ar
  53   36   37 ar
  54   36   39 1
  55   37   38 ar
  56   37   52 1
  57   38   53 1
  58   39   54 1
  59   39   55 1
  60   39   56 1

#	End of record

