#	Name: ASD01912095
#	Creating user name:	WinNT
#	Creation time:	15. 06. 2019 19:59

#	Modifying user name:	WinNT
#	Modification time:	15. 06. 2019 19:59

#	Program:	/corina/corina34_cracker 3.40 0067  02.08.2006

@<TRIPOS>MOLECULE
ASD01912095
  58   62    0    0    0
SMALL
NO_CHARGES


@<TRIPOS>ATOM
   1 N1             0.0093     1.3346    -0.2148 N.2     
   2 C2             0.0000     0.0035    -0.0849 C.2     
   3 N3             1.2250    -0.4107     0.1582 N.2     
   4 N4             2.0446     0.7293     0.1810 N.pl3   
   5 C5             1.2351     1.7873    -0.0571 C.2     
   6 C6             1.6546     3.2048    -0.1282 C.ar    
   7 C7             0.7150     4.2224     0.0376 C.ar    
   8 C8             1.1123     5.5420    -0.0298 C.ar    
   9 C9             2.4395     5.8568    -0.2613 C.ar    
  10 C10            3.3761     4.8521    -0.4265 C.ar    
  11 C11            2.9922     3.5287    -0.3555 C.ar    
  12 C12           -1.1979    -0.8654    -0.1962 C.ar    
  13 C13           -2.4461    -0.3043    -0.4574 C.ar    
  14 C14           -3.5574    -1.1159    -0.5600 C.ar    
  15 C15           -3.4332    -2.4867    -0.4037 C.ar    
  16 C16           -2.1938    -3.0489    -0.1434 C.ar    
  17 C17           -1.0766    -2.2455    -0.0453 C.ar    
  18 F18           -4.5238    -3.2777    -0.5050 F       
  19 C19            3.4901     0.7660     0.4161 C.3     
  20 C20            4.2165     0.5902    -0.8925 C.2     
  21 N21            5.5639     0.5908    -0.9207 N.am    
  22 O22            3.5885     0.4482    -1.9204 O.2     
  23 C23            6.2926     0.4207    -2.1870 C.3     
  24 C24            7.3213     1.5496    -2.3121 C.3     
  25 N25            8.1640     1.5753    -1.1091 N.3     
  26 C26            7.3714     1.8768     0.0904 C.3     
  27 C27            6.3447     0.7675     0.3131 C.3     
  28 C28            9.2069     2.4738    -1.2532 C.ar    
  29 N29           10.0703     2.6271    -0.2600 N.ar    
  30 C30           -4.9081    -0.5101    -0.8420 C.3     
  31 C31           11.0781     3.4773    -0.3655 C.ar    
  32 C32           11.2242     4.2115    -1.5320 C.ar    
  33 C33           10.3031     4.0264    -2.5511 C.ar    
  34 N34            9.3212     3.1561    -2.3832 N.ar    
  35 H35           -0.3214     3.9779     0.2180 H       
  36 H36            0.3858     6.3308     0.0980 H       
  37 H37            2.7455     6.8912    -0.3135 H       
  38 H38            4.4106     5.1042    -0.6069 H       
  39 H39            3.7244     2.7452    -0.4843 H       
  40 H40           -2.5438     0.7644    -0.5790 H       
  41 H41           -2.1015    -4.1181    -0.0215 H       
  42 H42           -0.1109    -2.6845     0.1572 H       
  43 H43            3.7623     1.7251     0.8567 H       
  44 H44            3.7681    -0.0386     1.0969 H       
  45 H45            6.8035    -0.5421    -2.1890 H       
  46 H46            5.5929     0.4688    -3.0214 H       
  47 H47            7.9449     1.3779    -3.1894 H       
  48 H48            6.8038     2.5035    -2.4141 H       
  49 H49            8.0313     1.9425     0.9554 H       
  50 H50            6.8533     2.8262    -0.0451 H       
  51 H51            5.6805     1.0424     1.1324 H       
  52 H52            6.8581    -0.1641     0.5510 H       
  53 H53           -5.0678    -0.4637    -1.9193 H       
  54 H54           -5.6843    -1.1245    -0.3858 H       
  55 H55           -4.9493     0.4961    -0.4250 H       
  56 H56           11.7785     3.5983     0.4477 H       
  57 H57           12.0378     4.9128    -1.6443 H       
  58 H58           10.3883     4.5832    -3.4726 H       
@<TRIPOS>BOND
   1    1    2 1
   2    1    5 2
   3    2    3 2
   4    2   12 1
   5    3    4 1
   6    4    5 1
   7    4   19 1
   8    5    6 1
   9    6    7 ar
  10    6   11 ar
  11    7    8 ar
  12    7   35 1
  13    8    9 ar
  14    8   36 1
  15    9   10 ar
  16    9   37 1
  17   10   11 ar
  18   10   38 1
  19   11   39 1
  20   12   13 ar
  21   12   17 ar
  22   13   14 ar
  23   13   40 1
  24   14   15 ar
  25   14   30 1
  26   15   16 ar
  27   15   18 1
  28   16   17 ar
  29   16   41 1
  30   17   42 1
  31   19   20 1
  32   19   43 1
  33   19   44 1
  34   20   21 am
  35   20   22 2
  36   21   23 1
  37   21   27 1
  38   23   24 1
  39   23   45 1
  40   23   46 1
  41   24   25 1
  42   24   47 1
  43   24   48 1
  44   25   26 1
  45   25   28 1
  46   26   27 1
  47   26   49 1
  48   26   50 1
  49   27   51 1
  50   27   52 1
  51   28   29 ar
  52   28   34 ar
  53   29   31 ar
  54   30   53 1
  55   30   54 1
  56   30   55 1
  57   31   32 ar
  58   31   56 1
  59   32   33 ar
  60   32   57 1
  61   33   34 ar
  62   33   58 1

#	End of record

