#	Name: ASD01901392
#	Creating user name:	WinNT
#	Creation time:	15. 06. 2019 19:53

#	Modifying user name:	WinNT
#	Modification time:	15. 06. 2019 19:53

#	Program:	/corina/corina34_cracker 3.40 0067  02.08.2006

@<TRIPOS>MOLECULE
ASD01901392
  37   40    0    0    0
SMALL
NO_CHARGES


@<TRIPOS>ATOM
   1 C1            -0.0168     1.3886     0.0097 C.ar    
   2 N2             1.1078     2.0748     0.0026 N.ar    
   3 C3             2.2861     1.4814    -0.0118 C.ar    
   4 C4             2.3900     0.1032    -0.0207 C.ar    
   5 C5             1.2353    -0.6634    -0.0138 C.ar    
   6 C6             0.0021    -0.0041     0.0020 C.ar    
   7 C7            -1.2658    -0.7757     0.0105 C.2     
   8 N8            -2.8252    -2.0981     1.1910 N.2     
   9 C9            -1.7048    -1.4183     1.1885 C.2     
  10 C10           -2.0276    -0.8694    -1.1204 C.2     
  11 N11           -3.1869    -1.5856    -1.0782 N.pl3   
  12 C12           -3.5765    -2.1998     0.0843 C.2     
  13 C13           -4.1425    -1.8584    -2.0196 C.2     
  14 C14           -5.0817    -2.6219    -1.4219 C.2     
  15 N15           -4.7241    -2.8205    -0.1497 N.2     
  16 C16           -6.3254    -3.1615    -2.0799 C.3     
  17 O17           -6.3631    -2.7404    -3.4449 O.3     
  18 C18           -7.4284    -3.1447    -4.1863 C.ar    
  19 C19           -8.4192    -3.9256    -3.6097 C.ar    
  20 C20           -7.5285    -2.7720    -5.5186 C.ar    
  21 C21           -8.6118    -3.1832    -6.2708 C.ar    
  22 C22           -9.5977    -3.9666    -5.6952 C.ar    
  23 C23           -9.5015    -4.3354    -4.3642 C.ar    
  24 F24          -10.6570    -4.3673    -6.4317 F       
  25 Cl25           1.3177    -2.3974    -0.0251 Cl      
  26 H26           -0.9621     1.9107     0.0260 H       
  27 H27            3.1836     2.0821    -0.0172 H       
  28 H28            3.3602    -0.3711    -0.0332 H       
  29 H29           -1.1150    -1.3497     2.0906 H       
  30 H30           -1.7162    -0.3834    -2.0333 H       
  31 H31           -4.1448    -1.5252    -3.0470 H       
  32 H32           -6.3165    -4.2506    -2.0358 H       
  33 H33           -7.2052    -2.7840    -1.5587 H       
  34 H34           -8.3444    -4.2134    -2.5714 H       
  35 H35           -6.7600    -2.1603    -5.9676 H       
  36 H36           -8.6900    -2.8931    -7.3082 H       
  37 H37          -10.2731    -4.9434    -3.9154 H       
@<TRIPOS>BOND
   1    1    6 ar
   2    1    2 ar
   3    1   26 1
   4    2    3 ar
   5    3    4 ar
   6    3   27 1
   7    4    5 ar
   8    4   28 1
   9    5    6 ar
  10    5   25 1
  11    6    7 1
  12    7   10 2
  13    7    9 1
  14    8    9 2
  15    8   12 1
  16    9   29 1
  17   10   11 1
  18   10   30 1
  19   11   13 1
  20   11   12 1
  21   12   15 2
  22   13   14 2
  23   13   31 1
  24   14   15 1
  25   14   16 1
  26   16   17 1
  27   16   32 1
  28   16   33 1
  29   17   18 1
  30   18   20 ar
  31   18   19 ar
  32   19   23 ar
  33   19   34 1
  34   20   21 ar
  35   20   35 1
  36   21   22 ar
  37   21   36 1
  38   22   23 ar
  39   22   24 1
  40   23   37 1

#	End of record

