#	Name: ASD01910859
#	Creating user name:	WinNT
#	Creation time:	15. 06. 2019 19:56

#	Modifying user name:	WinNT
#	Modification time:	15. 06. 2019 19:56

#	Program:	/corina/corina34_cracker 3.40 0067  02.08.2006

@<TRIPOS>MOLECULE
ASD01910859
  54   57    0    0    0
SMALL
NO_CHARGES


@<TRIPOS>ATOM
   1 C1            -0.0168     1.3842     0.0097 C.ar    
   2 C2             0.0021    -0.0041     0.0020 C.ar    
   3 C3             1.2266    -0.6477    -0.0131 C.ar    
   4 C4             2.3908     0.1134    -0.0202 C.ar    
   5 N5             2.3311     1.4363    -0.0120 N.ar    
   6 C6             1.1776     2.0767     0.0020 C.ar    
   7 N7             3.6279    -0.5202    -0.0354 N.3     
   8 C8             4.7221     0.4608    -0.0406 C.3     
   9 C9             6.0630    -0.2742     0.0230 C.3     
  10 N10            6.1729    -1.1874    -1.1231 N.3     
  11 C11            5.0788    -2.1685    -1.1179 C.3     
  12 C12            3.7378    -1.4334    -1.1815 C.3     
  13 C13            7.4803    -1.8571    -1.1392 C.3     
  14 C14            7.4693    -2.9558    -2.1705 C.ar    
  15 C15            7.8509    -2.6841    -3.4724 C.ar    
  16 C16            7.8435    -3.6867    -4.4265 C.ar    
  17 C17            7.4556    -4.9652    -4.0850 C.ar    
  18 C18            7.0692    -5.2473    -2.7719 C.ar    
  19 C19            7.0842    -4.2312    -1.8130 C.ar    
  20 C20            6.6651    -6.5725    -2.4097 C.1     
  21 C21            6.3338    -7.6589    -2.1128 C.1     
  22 C22            5.9297    -8.9841    -1.7506 C.ar    
  23 C23            5.5438    -9.2653    -0.4384 C.ar    
  24 C24            5.1540   -10.5490    -0.0964 C.ar    
  25 C25            5.1477   -11.5525    -1.0559 C.ar    
  26 C26            5.5300   -11.2764    -2.3561 C.ar    
  27 C27            5.9144   -10.0000    -2.7105 C.ar    
  28 O28            4.7776   -10.8271     1.1796 O.3     
  29 C29            4.3875   -12.1724     1.4622 C.3     
  30 H30           -0.9562     1.9169     0.0170 H       
  31 H31           -0.9185    -0.5688     0.0081 H       
  32 H32            1.2778    -1.7264    -0.0191 H       
  33 H33            1.1676     3.1567     0.0082 H       
  34 H34            4.6750     1.0532    -0.9543 H       
  35 H35            4.6259     1.1174     0.8242 H       
  36 H36            6.8767     0.4503    -0.0099 H       
  37 H37            6.1212    -0.8451     0.9497 H       
  38 H38            5.1749    -2.8250    -1.9827 H       
  39 H39            5.1258    -2.7608    -0.2041 H       
  40 H40            2.9241    -2.1579    -1.1485 H       
  41 H41            3.6796    -0.8626    -2.1082 H       
  42 H42            8.2563    -1.1331    -1.3878 H       
  43 H43            7.6824    -2.2832    -0.1565 H       
  44 H44            8.1557    -1.6847    -3.7455 H       
  45 H45            8.1420    -3.4672    -5.4409 H       
  46 H46            7.4499    -5.7465    -4.8307 H       
  47 H47            6.7869    -4.4419    -0.7963 H       
  48 H48            5.5497    -8.4841     0.3073 H       
  49 H49            4.8434   -12.5529    -0.7858 H       
  50 H50            5.5231   -12.0617    -3.0974 H       
  51 H51            6.2119    -9.7878    -3.7268 H       
  52 H52            4.1119   -12.2576     2.5134 H       
  53 H53            3.5341   -12.4417     0.8399 H       
  54 H54            5.2190   -12.8443     1.2491 H       
@<TRIPOS>BOND
   1    1    2 ar
   2    1    6 ar
   3    1   30 1
   4    2    3 ar
   5    2   31 1
   6    3    4 ar
   7    3   32 1
   8    4    5 ar
   9    4    7 1
  10    5    6 ar
  11    6   33 1
  12    7    8 1
  13    7   12 1
  14    8    9 1
  15    8   34 1
  16    8   35 1
  17    9   10 1
  18    9   36 1
  19    9   37 1
  20   10   11 1
  21   10   13 1
  22   11   12 1
  23   11   38 1
  24   11   39 1
  25   12   40 1
  26   12   41 1
  27   13   14 1
  28   13   42 1
  29   13   43 1
  30   14   15 ar
  31   14   19 ar
  32   15   16 ar
  33   15   44 1
  34   16   17 ar
  35   16   45 1
  36   17   18 ar
  37   17   46 1
  38   18   19 ar
  39   18   20 1
  40   19   47 1
  41   20   21 3
  42   21   22 1
  43   22   23 ar
  44   22   27 ar
  45   23   24 ar
  46   23   48 1
  47   24   25 ar
  48   24   28 1
  49   25   26 ar
  50   25   49 1
  51   26   27 ar
  52   26   50 1
  53   27   51 1
  54   28   29 1
  55   29   52 1
  56   29   53 1
  57   29   54 1

#	End of record

