#	Name: ASD01884678
#	Creating user name:	WinNT
#	Creation time:	15. 06. 2019 19:48

#	Modifying user name:	WinNT
#	Modification time:	15. 06. 2019 19:48

#	Program:	/corina/corina34_cracker 3.40 0067  02.08.2006

@<TRIPOS>MOLECULE
ASD01884678
  40   42    0    0    0
SMALL
NO_CHARGES


@<TRIPOS>ATOM
   1 C1            -0.0164     1.3569     0.0095 C.2     
   2 C2             0.0021    -0.0041     0.0020 C.2     
   3 C3             1.2451    -0.6752    -0.0135 C.2     
   4 C4             2.4110     0.0555    -0.0207 C.2     
   5 N5             2.3715     1.4102    -0.0130 N.am    
   6 C6             1.1971     2.0672     0.0017 C.2     
   7 O7             1.1853     3.2874     0.0088 O.2     
   8 C8             1.2931    -2.1566    -0.0214 C.ar    
   9 C9             3.6242     2.1696    -0.0209 C.3     
  10 C10            4.0402     2.4376    -1.4443 C.ar    
  11 C11            3.6098     3.5849    -2.0848 C.ar    
  12 C12            3.9897     3.8329    -3.3896 C.ar    
  13 C13            4.8039     2.9297    -4.0573 C.ar    
  14 C14            5.2345     1.7793    -3.4125 C.ar    
  15 C15            4.8564     1.5387    -2.1058 C.ar    
  16 O16            5.1787     3.1712    -5.3411 O.3     
  17 C17            0.8157    -2.8754     1.0753 C.ar    
  18 C18            1.8103    -2.8314    -1.1280 C.ar    
  19 C19            1.8550    -4.2068    -1.1368 C.ar    
  20 C20            1.3819    -4.9280    -0.0366 C.ar    
  21 C21            0.8596    -4.2508     1.0693 C.ar    
  22 C22            1.4279    -6.3592    -0.0444 C.1     
  23 C23            6.0177     2.1978    -5.9660 C.3     
  24 N24            1.4643    -7.4946    -0.0507 N.1     
  25 H25           -0.9569     1.8877     0.0169 H       
  26 H26           -0.9216    -0.5637     0.0082 H       
  27 H27            3.3634    -0.4536    -0.0321 H       
  28 H28            3.4786     3.1163     0.4994 H       
  29 H29            4.4011     1.5941     0.4825 H       
  30 H30            2.9757     4.2876    -1.5646 H       
  31 H31            3.6529     4.7290    -3.8895 H       
  32 H32            5.8684     1.0746    -3.9302 H       
  33 H33            5.1913     0.6432    -1.6033 H       
  34 H34            0.4119    -2.3520     1.9294 H       
  35 H35            2.1753    -2.2740    -1.9779 H       
  36 H36            2.2549    -4.7288    -1.9935 H       
  37 H37            0.4942    -4.8068     1.9200 H       
  38 H38            6.2417     2.5119    -6.9855 H       
  39 H39            6.9461     2.1030    -5.4028 H       
  40 H40            5.5054     1.2359    -5.9865 H       
@<TRIPOS>BOND
   1    1    2 2
   2    1    6 1
   3    1   25 1
   4    2    3 1
   5    2   26 1
   6    3    4 2
   7    3    8 1
   8    4    5 1
   9    4   27 1
  10    5    6 am
  11    5    9 1
  12    6    7 2
  13    8   17 ar
  14    8   18 ar
  15    9   10 1
  16    9   28 1
  17    9   29 1
  18   10   11 ar
  19   10   15 ar
  20   11   12 ar
  21   11   30 1
  22   12   13 ar
  23   12   31 1
  24   13   14 ar
  25   13   16 1
  26   14   15 ar
  27   14   32 1
  28   15   33 1
  29   16   23 1
  30   17   21 ar
  31   17   34 1
  32   18   19 ar
  33   18   35 1
  34   19   20 ar
  35   19   36 1
  36   20   21 ar
  37   20   22 1
  38   21   37 1
  39   22   24 3
  40   23   38 1
  41   23   39 1
  42   23   40 1

#	End of record

