#	Name: ASD01812736
#	Creating user name:	WinNT
#	Creation time:	15. 06. 2019 19:29

#	Modifying user name:	WinNT
#	Modification time:	15. 06. 2019 19:29

#	Program:	/corina/corina34_cracker 3.40 0067  02.08.2006

@<TRIPOS>MOLECULE
ASD01812736
  52   56    0    0    0
SMALL
NO_CHARGES


@<TRIPOS>ATOM
   1 N1            -0.0158     1.3147     0.0093 N.ar    
   2 C2             0.0021    -0.0041     0.0020 C.ar    
   3 C3             1.1989    -0.7033    -0.0127 C.ar    
   4 C4             2.3829    -0.0013    -0.0202 C.ar    
   5 C5             2.3448     1.3978    -0.0128 C.ar    
   6 C6             1.0955     2.0332     0.0025 C.ar    
   7 C7             3.8373    -0.3889    -0.0363 C.3     
   8 N8             4.5955     0.8684    -0.0373 N.am    
   9 C9             3.7280     1.8961    -0.0237 C.2     
  10 C10            6.0558     0.9844    -0.0504 C.3     
  11 C11            6.5432     1.0311    -1.4757 C.ar    
  12 C12            6.4763     2.2162    -2.1897 C.ar    
  13 C13            6.9229     2.2631    -3.4975 C.ar    
  14 C14            7.4401     1.1165    -4.0950 C.ar    
  15 C15            7.5046    -0.0724    -3.3711 C.ar    
  16 C16            7.0612    -0.1080    -2.0646 C.ar    
  17 O17            1.0255     3.3856     0.0100 O.3     
  18 O18            4.0429     3.0706    -0.0212 O.2     
  19 C19           -0.2795     3.9677     0.0251 C.3     
  20 C20            8.4497     0.1273    -6.2168 C.2     
  21 C21            7.9207     1.1605    -5.4988 C.2     
  22 N22            7.9224     2.2266    -6.3189 N.2     
  23 N23            8.4148     1.8752    -7.4539 N.2     
  24 N24            8.7425     0.6313    -7.4368 N.pl3   
  25 C25            9.3337    -0.1135    -8.5512 C.3     
  26 F26            5.9737     3.3271    -1.6079 F       
  27 C27           -0.1576     5.4928     0.0317 C.3     
  28 C28           -1.5548     6.1160     0.0479 C.3     
  29 C29           -1.6482     7.6379     0.1747 C.3     
  30 C30           -1.9657     6.9606    -1.1599 C.3     
  31 H31           -0.9309    -0.5480     0.0080 H       
  32 H32            1.2023    -1.7833    -0.0178 H       
  33 H33            4.0797    -0.9721     0.8522 H       
  34 H34            4.0624    -0.9631    -0.9351 H       
  35 H35            6.3524     1.8979     0.4651 H       
  36 H36            6.4932     0.1235     0.4552 H       
  37 H37            6.8704     3.1870    -4.0544 H       
  38 H38            7.9047    -0.9641    -3.8307 H       
  39 H39            7.1150    -1.0285    -1.5023 H       
  40 H40           -0.8289     3.6509    -0.8614 H       
  41 H41           -0.8123     3.6419     0.9185 H       
  42 H42            8.6070    -0.8860    -5.8777 H       
  43 H43            8.5404    -0.5508    -9.1575 H       
  44 H44            9.9292     0.5625    -9.1648 H       
  45 H45            9.9714    -0.9065    -8.1606 H       
  46 H46            0.3918     5.8096     0.9182 H       
  47 H47            0.3752     5.8186    -0.8617 H       
  48 H48           -2.3289     5.5221     0.5339 H       
  49 H49           -2.4838     8.0452     0.7438 H       
  50 H50           -0.7141     8.1951     0.2466 H       
  51 H51           -1.2406     7.0722    -1.9661 H       
  52 H52           -3.0103     6.9223    -1.4689 H       
@<TRIPOS>BOND
   1    1    2 ar
   2    1    6 ar
   3    2    3 ar
   4    2   31 1
   5    3    4 ar
   6    3   32 1
   7    4    7 1
   8    4    5 ar
   9    5    6 ar
  10    5    9 1
  11    6   17 1
  12    7    8 1
  13    7   33 1
  14    7   34 1
  15    8    9 am
  16    8   10 1
  17    9   18 2
  18   10   11 1
  19   10   35 1
  20   10   36 1
  21   11   12 ar
  22   11   16 ar
  23   12   13 ar
  24   12   26 1
  25   13   14 ar
  26   13   37 1
  27   14   15 ar
  28   14   21 1
  29   15   16 ar
  30   15   38 1
  31   16   39 1
  32   17   19 1
  33   19   27 1
  34   19   40 1
  35   19   41 1
  36   20   21 2
  37   20   24 1
  38   20   42 1
  39   21   22 1
  40   22   23 2
  41   23   24 1
  42   24   25 1
  43   25   43 1
  44   25   44 1
  45   25   45 1
  46   27   28 1
  47   27   46 1
  48   27   47 1
  49   28   29 1
  50   28   30 1
  51   28   48 1
  52   29   30 1
  53   29   49 1
  54   29   50 1
  55   30   51 1
  56   30   52 1

#	End of record

