#	Name: ASD07930116
#	Creating user name:	WinNT
#	Creation time:	15. 06. 2019 21:11

#	Modifying user name:	WinNT
#	Modification time:	15. 06. 2019 21:11

#	Program:	/corina/corina34_cracker 3.40 0067  02.08.2006

@<TRIPOS>MOLECULE
ASD07930116
  49   52    0    0    0
SMALL
NO_CHARGES


@<TRIPOS>ATOM
   1 C1            -0.0180     1.4756     0.0102 C.2     
   2 C2             0.0021    -0.0041     0.0020 C.2     
   3 N3             1.1815     2.1508     0.0023 N.am    
   4 N4             1.1185    -0.6402     0.4302 N.am    
   5 C5             2.2485     0.1648     0.9155 C.3     
   6 C6             2.4258     1.3693    -0.0210 C.3     
   7 C7            -1.2123     2.1519     0.0195 C.2     
   8 C8            -1.2386     3.5491     0.0297 C.2     
   9 C9            -0.0415     4.2502     0.0309 C.2     
  10 C10            1.2183     3.4945     0.0141 C.2     
  11 O11           -0.9638    -0.6357    -0.3807 O.2     
  12 O12            2.2869     4.0805     0.0109 O.2     
  13 S13            0.5588     6.8170    -1.2213 S.3     
  14 N14            0.1828     8.2424    -0.3810 N.2     
  15 C15           -0.3457     7.9005     0.7573 C.2     
  16 C16           -0.4869     6.5651     1.0387 C.2     
  17 C17           -0.0338     5.7240     0.0420 C.2     
  18 C18           -0.7924     8.9474     1.7449 C.3     
  19 C19            1.1982    -2.1029     0.4104 C.3     
  20 C20            1.7657    -2.5647    -0.9333 C.3     
  21 O21            3.1146    -2.1109    -1.0620 O.3     
  22 C22            3.7693    -2.4386    -2.2072 C.ar    
  23 C23            5.0815    -2.0304    -2.3982 C.ar    
  24 C24            5.7453    -2.3648    -3.5624 C.ar    
  25 C25            5.1024    -3.1064    -4.5379 C.ar    
  26 C26            3.7938    -3.5139    -4.3495 C.ar    
  27 C27            3.1283    -3.1863    -3.1838 C.ar    
  28 C28            5.7819    -1.2223    -1.3364 C.3     
  29 F29            7.0852    -0.9328    -1.7545 F       
  30 F30            5.0845    -0.0284    -1.1231 F       
  31 F31            5.8262    -1.9556    -0.1458 F       
  32 Cl32           5.9388    -3.5254    -6.0003 Cl      
  33 H33            2.0415     0.5146     1.9269 H       
  34 H34            3.1563    -0.4385     0.9121 H       
  35 H35            2.6234     1.0215    -1.0349 H       
  36 H36            3.2548     1.9863     0.3255 H       
  37 H37           -2.1402     1.5992     0.0187 H       
  38 H38           -2.1806     4.0773     0.0363 H       
  39 H39           -0.9156     6.2028     1.9614 H       
  40 H40           -1.8332     9.2078     1.5526 H       
  41 H41           -0.6970     8.5558     2.7577 H       
  42 H42           -0.1700     9.8360     1.6389 H       
  43 H43            1.8496    -2.4422     1.2158 H       
  44 H44            0.2018    -2.5230     0.5477 H       
  45 H45            1.7423    -3.6533    -0.9828 H       
  46 H46            1.1644    -2.1512    -1.7430 H       
  47 H47            6.7666    -2.0469    -3.7116 H       
  48 H48            3.2936    -4.0924    -5.1121 H       
  49 H49            2.1084    -3.5087    -3.0350 H       
@<TRIPOS>BOND
   1    1    2 1
   2    1    3 1
   3    1    7 2
   4    2    4 am
   5    2   11 2
   6    3    6 1
   7    3   10 am
   8    4    5 1
   9    4   19 1
  10    5    6 1
  11    5   33 1
  12    5   34 1
  13    6   35 1
  14    6   36 1
  15    7    8 1
  16    7   37 1
  17    8    9 2
  18    8   38 1
  19    9   10 1
  20    9   17 1
  21   10   12 2
  22   13   14 1
  23   13   17 1
  24   14   15 2
  25   15   16 1
  26   15   18 1
  27   16   17 2
  28   16   39 1
  29   18   40 1
  30   18   41 1
  31   18   42 1
  32   19   20 1
  33   19   43 1
  34   19   44 1
  35   20   21 1
  36   20   45 1
  37   20   46 1
  38   21   22 1
  39   22   23 ar
  40   22   27 ar
  41   23   24 ar
  42   23   28 1
  43   24   25 ar
  44   24   47 1
  45   25   26 ar
  46   25   32 1
  47   26   27 ar
  48   26   48 1
  49   27   49 1
  50   28   29 1
  51   28   30 1
  52   28   31 1

#	End of record

