#	Name: ASD01150381
#	Creating user name:	WinNT
#	Creation time:	15. 06. 2019 19:04

#	Modifying user name:	WinNT
#	Modification time:	15. 06. 2019 19:04

#	Program:	/corina/corina34_cracker 3.40 0067  02.08.2006

@<TRIPOS>MOLECULE
ASD01150381
  42   44    0    0    0
SMALL
NO_CHARGES


@<TRIPOS>ATOM
   1 C1             0.4936     1.4531    -1.2469 C.ar    
   2 C2             0.3673     0.0775    -1.2360 C.ar    
   3 C3             1.0256    -0.6726    -0.2776 C.ar    
   4 C4             1.8169    -0.0424     0.6772 C.ar    
   5 C5             1.9451     1.3385     0.6673 C.ar    
   6 C6             1.2828     2.0876    -0.2955 C.ar    
   7 N7             1.4105     3.4813    -0.3084 N.am    
   8 C8             0.2987     4.2290    -0.3877 C.2     
   9 N9             0.3614     5.5757    -0.4039 N.am    
  10 C10            1.5759     6.1699    -0.3382 C.2     
  11 C11            2.7628     5.2966    -0.2524 C.2     
  12 N12            2.5865     3.9928    -0.2386 N.2     
  13 O13            1.6854     7.3815    -0.3499 O.2     
  14 C14           -0.8602     6.3796    -0.4913 C.3     
  15 O15           -0.7851     3.6817    -0.4464 O.2     
  16 C16           -1.3666     6.6764     0.8967 C.ar    
  17 C17           -1.2018     7.9373     1.4374 C.ar    
  18 C18           -1.6661     8.2105     2.7106 C.ar    
  19 C19           -2.2957     7.2216     3.4451 C.ar    
  20 C20           -2.4615     5.9587     2.9054 C.ar    
  21 C21           -2.0021     5.6870     1.6282 C.ar    
  22 C22            4.0786     5.8568    -0.1805 C.1     
  23 N23            5.1225     6.3013    -0.1234 N.1     
  24 N24            2.4829    -0.8015     1.6475 N.am    
  25 C25            2.7597    -0.2627     2.8515 C.2     
  26 O26            2.5019     0.9024     3.0683 O.2     
  27 C27            3.3896    -1.1081     3.9284 C.3     
  28 F28            0.8994    -2.0176    -0.2690 F       
  29 Cl29          -2.8773     7.5653     5.0442 Cl      
  30 F30           -2.1638     4.4541     1.0998 F       
  31 H31           -0.0181     2.0357    -1.9986 H       
  32 H32           -0.2467    -0.4134    -1.9766 H       
  33 H33            2.5586     1.8301     1.4078 H       
  34 H34           -0.6433     7.3152    -1.0067 H       
  35 H35           -1.6197     5.8274    -1.0448 H       
  36 H36           -0.7098     8.7098     0.8651 H       
  37 H37           -1.5368     9.1963     3.1322 H       
  38 H38           -2.9530     5.1864     3.4785 H       
  39 H39            2.7449    -1.7149     1.4531 H       
  40 H40            3.5457    -2.1190     3.5519 H       
  41 H41            4.3478    -0.6754     4.2160 H       
  42 H42            2.7308    -1.1412     4.7962 H       
@<TRIPOS>BOND
   1    1    2 ar
   2    1    6 ar
   3    1   31 1
   4    2    3 ar
   5    2   32 1
   6    3    4 ar
   7    3   28 1
   8    4    5 ar
   9    4   24 1
  10    5    6 ar
  11    5   33 1
  12    6    7 1
  13    7    8 am
  14    7   12 1
  15    8    9 am
  16    8   15 2
  17    9   10 am
  18    9   14 1
  19   10   11 1
  20   10   13 2
  21   11   12 2
  22   11   22 1
  23   14   16 1
  24   14   34 1
  25   14   35 1
  26   16   17 ar
  27   16   21 ar
  28   17   18 ar
  29   17   36 1
  30   18   19 ar
  31   18   37 1
  32   19   20 ar
  33   19   29 1
  34   20   21 ar
  35   20   38 1
  36   21   30 1
  37   22   23 3
  38   24   25 am
  39   24   39 1
  40   25   26 2
  41   25   27 1
  42   27   40 1
  43   27   41 1
  44   27   42 1

#	End of record

