#	Name: ASD06590018
#	Creating user name:	WinNT
#	Creation time:	15. 06. 2019 21:06

#	Modifying user name:	WinNT
#	Modification time:	15. 06. 2019 21:06

#	Program:	/corina/corina34_cracker 3.40 0067  02.08.2006

@<TRIPOS>MOLECULE
ASD06590018
 360  359    0    0    0
SMALL
NO_CHARGES


@<TRIPOS>ATOM
   1 C1            -5.1571    19.9241    12.5068 C.2     
   2 O2            -5.2606    20.6839    11.5673 O.2     
   3 N3            -4.7699    21.9241    13.8255 N.am    
   4 C4            -4.8747    20.4641    13.8851 C.3     
   5 C5            -6.0131    20.0726    14.8294 C.3     
   6 C6            -5.7896    20.7245    16.1954 C.3     
   7 O7            -7.2572    20.5191    14.2864 O.3     
   8 C8            -7.1915    18.0635    10.8955 C.2     
   9 O9            -7.8712    18.4448    11.8247 O.2     
  10 N10           -5.3001    18.5971    12.3193 N.am    
  11 C11           -5.6885    18.0809    11.0044 C.3     
  12 C12           -5.1484    16.6594    10.8347 C.3     
  13 C13           -3.6423    16.6953    10.7986 C.2     
  14 O14           -3.0562    17.7421    10.9769 O.2     
  15 N15           -2.9466    15.5642    10.5683 N.am    
  16 C16           -9.6600    16.5676     8.6523 C.2     
  17 O17           -8.8206    15.9059     8.0792 O.2     
  18 N18           -7.7802    17.6242     9.7655 N.am    
  19 C19           -9.2413    17.6073     9.6597 C.3     
  20 C20           -9.7359    18.9830     9.2083 C.3     
  21 C21          -12.8772    15.3450     7.3001 C.2     
  22 O22          -13.5428    16.1023     7.9741 O.2     
  23 N23          -10.9672    16.3731     8.3883 N.am    
  24 C24          -11.3742    15.3623     7.4090 C.3     
  25 C25          -15.3960    13.1163     5.8677 C.2     
  26 O26          -14.5790    12.2502     5.6366 O.2     
  27 N27          -13.4817    14.4878     6.4537 N.am    
  28 C28          -14.9427    14.4709     6.3478 C.3     
  29 C29          -15.3944    15.5420     5.3531 C.3     
  30 C30          -15.0443    16.9270     5.9009 C.3     
  31 C31          -15.4960    17.9981     4.9061 C.3     
  32 N32          -15.1607    19.3242     5.4307 N.pl3   
  33 C33          -15.4725    20.4495     4.7050 C.2     
  34 N34          -15.1743    21.6294     5.1717 N.2     
  35 N35          -16.0990    20.3303     3.4870 N.pl3   
  36 C36          -18.4871    11.6808     4.5458 C.2     
  37 O37          -19.0197    12.7668     4.4580 O.2     
  38 N38          -16.7092    12.8672     5.6950 N.am    
  39 C39          -17.1498    11.5503     5.2282 C.3     
  40 C40          -17.2769    10.6022     6.4223 C.3     
  41 O41          -18.3159    11.0634     7.2882 O.3     
  42 C42          -21.5085    10.6953     4.2199 C.2     
  43 O43          -21.3225    10.5640     5.4111 O.2     
  44 N44          -19.0912    10.5906     4.0330 N.am    
  45 C45          -20.3361    10.7319     3.2737 C.3     
  46 C46          -20.4546     9.5832     2.2701 C.3     
  47 C47          -19.3728     9.7123     1.2289 C.2     
  48 O48          -18.5413    10.5835     1.3263 O.2     
  49 O49          -19.3329     8.8594     0.1932 O.3     
  50 C50          -25.1312    10.3069     3.9227 C.2     
  51 O51          -25.0611    10.0317     2.7436 O.2     
  52 N52          -22.7637    10.8084     3.7422 N.am    
  53 C53          -23.9034    10.7728     4.6620 C.3     
  54 C54          -24.1483    12.1741     5.2252 C.3     
  55 C55          -22.8621    12.6976     5.8675 C.3     
  56 O56          -24.5432    13.0502     4.1676 O.3     
  57 C57          -28.7328    10.2642     4.5470 C.2     
  58 O58          -28.6245    10.9467     5.5437 O.2     
  59 N59          -26.3071    10.1960     4.5718 N.am    
  60 C60          -27.5006     9.7431     3.8531 C.3     
  61 C61          -27.5346     8.2136     3.8338 C.3     
  62 C62          -26.3493     7.6874     3.0220 C.3     
  63 C63          -26.3832     6.1579     3.0027 C.3     
  64 N64          -25.2483     5.6540     2.2254 N.pl3   
  65 C65          -25.0698     4.2999     2.0680 C.2     
  66 N66          -25.9105     3.4645     2.6104 N.2     
  67 N67          -24.0047     3.8271     1.3386 N.pl3   
  68 C68          -32.3213     9.5780     4.4265 C.2     
  69 O69          -32.1687     8.6086     3.7137 O.2     
  70 N70          -29.9549     9.9718     4.0599 N.am    
  71 C71          -31.1527    10.4783     4.7344 C.3     
  72 C72          -31.4558    11.8943     4.2405 C.3     
  73 C73          -30.3252    12.8347     4.6629 C.3     
  74 C74          -30.6237    14.2294     4.1764 C.2     
  75 O75          -31.6406    14.4496     3.5532 O.2     
  76 N76          -29.7607    15.2321     4.4338 N.am    
  77 C77          -35.9554     9.7527     4.7811 C.2     
  78 O78          -35.9242    10.9230     5.0979 O.2     
  79 N79          -33.5360     9.8500     4.9431 N.am    
  80 C80          -34.6721     8.9747     4.6437 C.3     
  81 C81          -34.6814     7.7986     5.6222 C.3     
  82 C82          -33.4368     6.9377     5.3967 C.3     
  83 C83          -33.4460     5.7792     6.3605 C.2     
  84 O84          -34.3583     5.6544     7.1499 O.2     
  85 N85          -32.4406     4.8818     6.3452 N.am    
  86 C86          -39.5171     8.9566     4.9896 C.2     
  87 O87          -39.3027     7.7668     5.0854 O.2     
  88 N88          -37.1379     9.1479     4.5519 N.am    
  89 C89          -38.3855     9.9042     4.6854 C.3     
  90 C90          -38.6764    10.6430     3.3777 C.3     
  91 C91          -37.5909    11.6930     3.1327 C.3     
  92 C92          -37.8819    12.4319     1.8249 C.3     
  93 N93          -36.8424    13.4373     1.5903 N.pl3   
  94 C94          -36.8935    14.2300     0.4682 C.2     
  95 N95          -37.8668    14.0871    -0.3869 N.2     
  96 N96          -35.9181    15.1735     0.2481 N.pl3   
  97 C97          -43.1690     9.1199     4.9969 C.2     
  98 O98          -43.1767    10.2159     4.4776 O.2     
  99 N99          -40.7676     9.4315     5.1552 N.am    
 100 C100         -41.8677     8.5103     5.4508 C.3     
 101 C101         -41.9244     8.2505     6.9575 C.3     
 102 C102         -40.6546     7.5187     7.3970 C.3     
 103 C103         -40.7113     7.2589     8.9037 C.3     
 104 C104         -39.4415     6.5272     9.3431 C.3     
 105 N105         -39.4959     6.2777    10.7898 N.3     
 106 C106         -46.7242     8.4551     5.5276 C.2     
 107 O107         -46.4986     7.6251     6.3826 O.2     
 108 N108         -44.3243     8.4472     5.1681 N.am    
 109 C109         -45.5893     9.0398     4.7268 C.3     
 110 C110         -45.8037     8.7375     3.2424 C.3     
 111 C111         -44.7203     9.4358     2.4181 C.3     
 112 C112         -44.8593     9.0339     0.9483 C.3     
 113 C113         -44.8776    10.9521     2.5492 C.3     
 114 C114         -50.3690     8.3856     5.1947 C.2     
 115 O115         -50.4089     9.1962     4.2934 O.2     
 116 N116         -47.9900     8.8545     5.2935 N.am    
 117 C117         -49.1032     8.2085     5.9932 C.3     
 118 C118         -49.2772     8.8462     7.3730 C.3     
 119 C119         -50.4365     8.1680     8.1058 C.3     
 120 C120         -50.0612     6.7192     8.4234 C.3     
 121 C121         -50.7248     8.9174     9.4081 C.3     
 122 C122         -53.8696     7.4081     5.5858 C.2     
 123 O123         -53.6784     6.9599     6.6964 O.2     
 124 N124         -51.4565     7.6433     5.4821 N.am    
 125 C125         -52.7031     7.8531     4.7417 C.3     
 126 C126         -52.6706     7.0387     3.4469 C.3     
 127 C127         -51.5638     7.5735     2.5358 C.3     
 128 C128         -51.5312     6.7591     1.2409 C.3     
 129 C129         -50.4245     7.2939     0.3299 C.3     
 130 N130         -50.3932     6.5120    -0.9134 N.3     
 131 C131         -57.4139     6.7048     5.0325 C.2     
 132 O132         -57.3008     6.7931     3.8282 O.2     
 133 N133         -55.1253     7.5083     5.1065 N.am    
 134 C134         -56.2592     7.0758     5.9270 C.3     
 135 C135         -56.6801     8.2156     6.8568 C.3     
 136 O136         -57.1718     9.3084     6.0784 O.3     
 137 C137         -60.9875     6.0654     5.4611 C.2     
 138 O138         -60.9679     6.2844     6.6538 O.2     
 139 N139         -58.5723     6.2750     5.5709 N.am    
 140 C140         -59.6949     5.9144     4.7013 C.3     
 141 C141         -59.5393     4.4629     4.2431 C.3     
 142 C142         -58.2407     4.3157     3.4475 C.3     
 143 O143         -59.4982     3.6047     5.3850 O.3     
 144 C144         -63.7497     4.6388     6.0961 C.2     
 145 O145         -63.0106     3.7106     5.8676 O.2     
 146 N146         -62.1655     5.9573     4.8151 N.am    
 147 C147         -63.4212     6.0113     5.5677 C.3     
 148 C148         -64.5473     6.4864     4.6473 C.3     
 149 C149         -64.2751     7.9271     4.2101 C.3     
 150 C150         -65.3329     8.3598     3.1928 C.3     
 151 C151         -64.3326     8.8496     5.4293 C.3     
 152 O152         -64.8632     4.4473     6.8207 O.3     
 153 C153          -4.0537    22.5868    14.7552 C.2     
 154 O154          -3.4959    21.9745    15.6411 O.2     
 155 C155           2.8547    38.2435    22.3928 C.3     
 156 C156           2.7452    36.7187    22.4550 C.3     
 157 C157           1.8832    36.2214    21.2929 C.3     
 158 C158           1.7737    34.6966    21.3552 C.3     
 159 C159           0.9117    34.1993    20.1931 C.3     
 160 C160           0.8022    32.6745    20.2553 C.3     
 161 C161          -0.0599    32.1772    19.0933 C.3     
 162 C162          -0.1693    30.6524    19.1555 C.3     
 163 C163          -1.0314    30.1551    17.9934 C.3     
 164 C164          -1.1408    28.6302    18.0557 C.3     
 165 C165          -2.0029    28.1330    16.8936 C.3     
 166 C166          -2.1123    26.6081    16.9558 C.3     
 167 C167          -2.9744    26.1108    15.7937 C.3     
 168 C168          -3.0838    24.5860    15.8560 C.3     
 169 C169          -3.9459    24.0887    14.6939 C.3     
 170 H170          -5.2160    22.4139    13.1170 H       
 171 H171          -3.9374    20.0473    14.2536 H       
 172 H172          -6.0344    18.9888    14.9431 H       
 173 H173          -5.7684    21.8083    16.0817 H       
 174 H174          -6.6006    20.4456    16.8681 H       
 175 H175          -4.8406    20.3839    16.6096 H       
 176 H176          -7.3095    21.4761    14.1578 H       
 177 H177          -5.1459    17.9839    13.0548 H       
 178 H178          -5.2752    18.7220    10.2258 H       
 179 H179          -5.4772    16.0435    11.6717 H       
 180 H180          -5.5242    16.2368     9.9029 H       
 181 H181          -3.4153    14.7271    10.4257 H       
 182 H182          -1.9771    15.5874    10.5451 H       
 183 H183          -7.2365    17.3192     9.0223 H       
 184 H184          -9.6732    17.3667    10.6311 H       
 185 H185         -10.8230    18.9704     9.1295 H       
 186 H186          -9.4331    19.7350     9.9369 H       
 187 H187          -9.3040    19.2236     8.2369 H       
 188 H188         -11.6386    16.9023     8.8466 H       
 189 H189         -11.0219    14.3823     7.7306 H       
 190 H190         -10.9423    15.6030     6.4376 H       
 191 H191         -12.9493    13.8821     5.9146 H       
 192 H192         -15.3802    14.6751     7.3251 H       
 193 H193         -14.8878    15.3895     4.4001 H       
 194 H194         -16.4722    15.4709     5.2070 H       
 195 H195         -15.5509    17.0795     6.8539 H       
 196 H196         -13.9664    16.9981     6.0469 H       
 197 H197         -14.9894    17.8456     3.9531 H       
 198 H198         -16.5738    17.9270     4.7601 H       
 199 H199         -14.7187    19.4083     6.2900 H       
 200 H200         -15.3943    22.4233     4.6597 H       
 201 H201         -16.3210    19.4522     3.1397 H       
 202 H202         -16.3190    21.1242     2.9750 H       
 203 H203         -17.3626    13.5598     5.8798 H       
 204 H204         -16.4198    11.1515     4.5238 H       
 205 H205         -17.5182     9.6005     6.0668 H       
 206 H206         -16.3337    10.5767     6.9680 H       
 207 H207         -18.4527    10.5090     8.0685 H       
 208 H208         -18.7017     9.7123     4.1667 H       
 209 H209         -20.3299    11.6820     2.7395 H       
 210 H210         -20.3453     8.6324     2.7916 H       
 211 H211         -21.4307     9.6224     1.7866 H       
 212 H212         -18.6205     8.9817    -0.4491 H       
 213 H213         -22.9124    10.9134     2.7895 H       
 214 H214         -23.6889    10.0849     5.4799 H       
 215 H215         -24.9378    12.1313     5.9755 H       
 216 H216         -22.0726    12.7404     5.1172 H       
 217 H217         -23.0365    13.6959     6.2687 H       
 218 H218         -22.5608    12.0294     6.6742 H       
 219 H219         -23.8870    13.1366     3.4626 H       
 220 H220         -26.3632    10.4161     5.5149 H       
 221 H221         -27.4733    10.1189     2.8303 H       
 222 H222         -27.4723     7.8359     4.8544 H       
 223 H223         -28.4655     7.8766     3.3778 H       
 224 H224         -26.4115     8.0651     2.0015 H       
 225 H225         -25.4184     8.0244     3.4780 H       
 226 H226         -26.3209     5.7802     4.0232 H       
 227 H227         -27.3141     5.8209     2.5467 H       
 228 H228         -24.6227     6.2758     1.8217 H       
 229 H229         -25.7846     2.5091     2.4994 H       
 230 H230         -23.3791     4.4489     0.9349 H       
 231 H231         -23.8789     2.8717     1.2276 H       
 232 H232         -30.0415     9.4259     3.2628 H       
 233 H233         -30.9827    10.4976     5.8109 H       
 234 H234         -31.5380    11.8902     3.1536 H       
 235 H235         -32.3949    12.2373     4.6746 H       
 236 H236         -30.2430    12.8388     5.7497 H       
 237 H237         -29.3861    12.4917     4.2287 H       
 238 H238         -28.9474    15.0560     4.9322 H       
 239 H239         -29.9528    16.1298     4.1206 H       
 240 H240         -33.6581    10.6253     5.5131 H       
 241 H241         -34.5824     8.5988     3.6245 H       
 242 H242         -34.6815     8.1764     6.6446 H       
 243 H243         -35.5747     7.1960     5.4574 H       
 244 H244         -33.4367     6.5598     4.3744 H       
 245 H245         -32.5436     7.5403     5.5615 H       
 246 H246         -31.7110     4.9817     5.7138 H       
 247 H247         -32.4465     4.1361     6.9655 H       
 248 H248         -37.1628     8.2119     4.2985 H       
 249 H249         -38.2879    10.6258     5.4965 H       
 250 H250         -38.6860     9.9310     2.5524 H       
 251 H251         -39.6475    11.1334     3.4457 H       
 252 H252         -37.5813    12.4051     3.9579 H       
 253 H253         -36.6198    11.2026     3.0646 H       
 254 H254         -37.8915    11.7198     0.9997 H       
 255 H255         -38.8529    12.9223     1.8930 H       
 256 H256         -36.1181    13.5436     2.2267 H       
 257 H257         -37.9029    14.6464    -1.1786 H       
 258 H258         -35.1938    15.2799     0.8845 H       
 259 H259         -35.9542    15.7328    -0.5436 H       
 260 H260         -40.9391    10.3831     5.0785 H       
 261 H261         -41.7047     7.5692     4.9257 H       
 262 H262         -41.9983     9.2001     7.4875 H       
 263 H263         -42.7954     7.6371     7.1879 H       
 264 H264         -40.5807     6.5691     6.8670 H       
 265 H265         -39.7836     8.1322     7.1666 H       
 266 H266         -40.7852     8.2086     9.4336 H       
 267 H267         -41.5823     6.6455     9.1341 H       
 268 H268         -39.3676     5.5775     8.8132 H       
 269 H269         -38.5704     7.1406     9.1127 H       
 270 H270         -40.3292     5.7655    11.0373 H       
 271 H271         -38.6677     5.7950    11.1049 H       
 272 H272         -44.3181     7.5706     5.5835 H       
 273 H273         -45.5569    10.1189     4.8769 H       
 274 H274         -45.7475     7.6613     3.0789 H       
 275 H275         -46.7845     9.1009     2.9356 H       
 276 H276         -43.7375     9.1395     2.7844 H       
 277 H277         -45.8422     9.3303     0.5820 H       
 278 H278         -44.0875     9.5314     0.3611 H       
 279 H279         -44.7473     7.9537     0.8549 H       
 280 H280         -45.8605    11.2484     2.1829 H       
 281 H281         -44.7786    11.2384     3.5963 H       
 282 H282         -44.1058    11.4496     1.9620 H       
 283 H283         -48.1639     9.5698     4.6617 H       
 284 H284         -48.8921     7.1454     6.1083 H       
 285 H285         -48.3604     8.7214     7.9492 H       
 286 H286         -49.4921     9.9086     7.2577 H       
 287 H287         -51.3244     8.1831     7.4737 H       
 288 H288         -50.9098     6.2177     8.8887 H       
 289 H289         -49.7947     6.2024     7.5014 H       
 290 H290         -49.2118     6.7052     9.1063 H       
 291 H291         -50.9922     9.9496     9.1819 H       
 292 H292         -51.5507     8.4342     9.9302 H       
 293 H293         -49.8369     8.9023    10.0402 H       
 294 H294         -51.4138     6.9701     6.1791 H       
 295 H295         -52.8102     8.9112     4.5029 H       
 296 H296         -52.4748     5.9923     3.6807 H       
 297 H297         -53.6316     7.1241     2.9397 H       
 298 H298         -51.7596     8.6200     2.3020 H       
 299 H299         -50.6028     7.4881     3.0430 H       
 300 H300         -51.3354     5.7126     1.4747 H       
 301 H301         -52.4923     6.8444     0.7338 H       
 302 H302         -50.6203     8.3403     0.0961 H       
 303 H303         -49.4635     7.2085     0.8370 H       
 304 H304         -51.2931     6.5223    -1.3698 H       
 305 H305         -49.6699     6.8460    -1.5325 H       
 306 H306         -55.2782     7.8668     4.2182 H       
 307 H307         -55.9679     6.2102     6.5220 H       
 308 H308         -57.4643     7.8660     7.5283 H       
 309 H309         -55.8207     8.5437     7.4415 H       
 310 H310         -57.4574    10.0684     6.6037 H       
 311 H311         -58.6628     6.2044     6.5341 H       
 312 H312         -59.7060     6.5708     3.8312 H       
 313 H313         -60.3848     4.1883     3.6125 H       
 314 H314         -57.3893     4.4780     4.1085 H       
 315 H315         -58.1858     3.3129     3.0239 H       
 316 H316         -58.2219     5.0513     2.6434 H       
 317 H317         -60.2911     3.6463     5.9370 H       
 318 H318         -62.1818     5.8436     3.8520 H       
 319 H319         -63.3158     6.7059     6.4011 H       
 320 H320         -64.5945     5.8428     3.7688 H       
 321 H321         -65.4964     6.4419     5.1816 H       
 322 H322         -63.2867     7.9880     3.7547 H       
 323 H323         -66.3213     8.2989     3.6483 H       
 324 H324         -65.1390     9.3862     2.8814 H       
 325 H325         -65.2920     7.7026     2.3242 H       
 326 H326         -63.5790     8.5413     6.1540 H       
 327 H327         -64.1387     9.8759     5.1179 H       
 328 H328         -65.3210     8.7887     5.8848 H       
 329 H329         -65.0316     3.5495     7.1381 H       
 330 H330           3.3136    38.5366    21.4486 H       
 331 H331           1.8595    38.6824    22.4648 H       
 332 H332           3.4688    38.5978    23.2207 H       
 333 H333           3.7403    36.2798    22.3830 H       
 334 H334           2.2863    36.4256    23.3993 H       
 335 H335           0.8880    36.6603    21.3650 H       
 336 H336           2.3421    36.5145    20.3487 H       
 337 H337           2.7688    34.2576    21.2832 H       
 338 H338           1.3148    34.4035    22.2994 H       
 339 H339          -0.0835    34.6382    20.2651 H       
 340 H340           1.3706    34.4924    19.2489 H       
 341 H341           1.7973    32.2355    20.1833 H       
 342 H342           0.3433    32.3814    21.1996 H       
 343 H343          -1.0550    32.6161    19.1653 H       
 344 H344           0.3991    32.4703    18.1490 H       
 345 H345           0.8258    30.2134    19.0835 H       
 346 H346          -0.6282    30.3593    20.0997 H       
 347 H347          -2.0265    30.5940    18.0654 H       
 348 H348          -0.5724    30.4481    17.0492 H       
 349 H349          -0.1457    28.1913    17.9837 H       
 350 H350          -1.5997    28.3372    18.9999 H       
 351 H351          -2.9980    28.5719    16.9656 H       
 352 H352          -1.5439    28.4260    15.9493 H       
 353 H353          -1.1172    26.1692    16.8838 H       
 354 H354          -2.5712    26.3151    17.9001 H       
 355 H355          -3.9695    26.5498    15.8657 H       
 356 H356          -2.5154    26.4039    14.8495 H       
 357 H357          -2.0887    24.1471    15.7840 H       
 358 H358          -3.5427    24.2929    16.8002 H       
 359 H359          -3.4869    24.3818    13.7497 H       
 360 H360          -4.9410    24.5277    14.7659 H       
@<TRIPOS>BOND
   1    1    2 2
   2    1    4 1
   3    1   10 am
   4    3  153 am
   5    3    4 1
   6    3  170 1
   7    4    5 1
   8    4  171 1
   9    5    6 1
  10    5    7 1
  11    5  172 1
  12    6  173 1
  13    6  174 1
  14    6  175 1
  15    7  176 1
  16    8    9 2
  17    8   11 1
  18    8   18 am
  19   10   11 1
  20   10  177 1
  21   11   12 1
  22   11  178 1
  23   12   13 1
  24   12  179 1
  25   12  180 1
  26   13   14 2
  27   13   15 am
  28   15  181 1
  29   15  182 1
  30   16   17 2
  31   16   19 1
  32   16   23 am
  33   18   19 1
  34   18  183 1
  35   19   20 1
  36   19  184 1
  37   20  185 1
  38   20  186 1
  39   20  187 1
  40   21   22 2
  41   21   24 1
  42   21   27 am
  43   23   24 1
  44   23  188 1
  45   24  189 1
  46   24  190 1
  47   25   26 2
  48   25   28 1
  49   25   38 am
  50   27   28 1
  51   27  191 1
  52   28   29 1
  53   28  192 1
  54   29   30 1
  55   29  193 1
  56   29  194 1
  57   30   31 1
  58   30  195 1
  59   30  196 1
  60   31   32 1
  61   31  197 1
  62   31  198 1
  63   32   33 1
  64   32  199 1
  65   33   34 2
  66   33   35 1
  67   34  200 1
  68   35  201 1
  69   35  202 1
  70   36   37 2
  71   36   39 1
  72   36   44 am
  73   38   39 1
  74   38  203 1
  75   39   40 1
  76   39  204 1
  77   40   41 1
  78   40  205 1
  79   40  206 1
  80   41  207 1
  81   42   43 2
  82   42   45 1
  83   42   52 am
  84   44   45 1
  85   44  208 1
  86   45   46 1
  87   45  209 1
  88   46   47 1
  89   46  210 1
  90   46  211 1
  91   47   48 2
  92   47   49 1
  93   49  212 1
  94   50   51 2
  95   50   53 1
  96   50   59 am
  97   52   53 1
  98   52  213 1
  99   53   54 1
 100   53  214 1
 101   54   55 1
 102   54   56 1
 103   54  215 1
 104   55  216 1
 105   55  217 1
 106   55  218 1
 107   56  219 1
 108   57   58 2
 109   57   60 1
 110   57   70 am
 111   59   60 1
 112   59  220 1
 113   60   61 1
 114   60  221 1
 115   61   62 1
 116   61  222 1
 117   61  223 1
 118   62   63 1
 119   62  224 1
 120   62  225 1
 121   63   64 1
 122   63  226 1
 123   63  227 1
 124   64   65 1
 125   64  228 1
 126   65   66 2
 127   65   67 1
 128   66  229 1
 129   67  230 1
 130   67  231 1
 131   68   69 2
 132   68   71 1
 133   68   79 am
 134   70   71 1
 135   70  232 1
 136   71   72 1
 137   71  233 1
 138   72   73 1
 139   72  234 1
 140   72  235 1
 141   73   74 1
 142   73  236 1
 143   73  237 1
 144   74   75 2
 145   74   76 am
 146   76  238 1
 147   76  239 1
 148   77   78 2
 149   77   80 1
 150   77   88 am
 151   79   80 1
 152   79  240 1
 153   80   81 1
 154   80  241 1
 155   81   82 1
 156   81  242 1
 157   81  243 1
 158   82   83 1
 159   82  244 1
 160   82  245 1
 161   83   84 2
 162   83   85 am
 163   85  246 1
 164   85  247 1
 165   86   87 2
 166   86   89 1
 167   86   99 am
 168   88   89 1
 169   88  248 1
 170   89   90 1
 171   89  249 1
 172   90   91 1
 173   90  250 1
 174   90  251 1
 175   91   92 1
 176   91  252 1
 177   91  253 1
 178   92   93 1
 179   92  254 1
 180   92  255 1
 181   93   94 1
 182   93  256 1
 183   94   95 2
 184   94   96 1
 185   95  257 1
 186   96  258 1
 187   96  259 1
 188   97   98 2
 189   97  100 1
 190   97  108 am
 191   99  100 1
 192   99  260 1
 193  100  101 1
 194  100  261 1
 195  101  102 1
 196  101  262 1
 197  101  263 1
 198  102  103 1
 199  102  264 1
 200  102  265 1
 201  103  104 1
 202  103  266 1
 203  103  267 1
 204  104  105 1
 205  104  268 1
 206  104  269 1
 207  105  270 1
 208  105  271 1
 209  106  107 2
 210  106  109 1
 211  106  116 am
 212  108  109 1
 213  108  272 1
 214  109  110 1
 215  109  273 1
 216  110  111 1
 217  110  274 1
 218  110  275 1
 219  111  112 1
 220  111  113 1
 221  111  276 1
 222  112  277 1
 223  112  278 1
 224  112  279 1
 225  113  280 1
 226  113  281 1
 227  113  282 1
 228  114  115 2
 229  114  117 1
 230  114  124 am
 231  116  117 1
 232  116  283 1
 233  117  118 1
 234  117  284 1
 235  118  119 1
 236  118  285 1
 237  118  286 1
 238  119  120 1
 239  119  121 1
 240  119  287 1
 241  120  288 1
 242  120  289 1
 243  120  290 1
 244  121  291 1
 245  121  292 1
 246  121  293 1
 247  122  123 2
 248  122  125 1
 249  122  133 am
 250  124  125 1
 251  124  294 1
 252  125  126 1
 253  125  295 1
 254  126  127 1
 255  126  296 1
 256  126  297 1
 257  127  128 1
 258  127  298 1
 259  127  299 1
 260  128  129 1
 261  128  300 1
 262  128  301 1
 263  129  130 1
 264  129  302 1
 265  129  303 1
 266  130  304 1
 267  130  305 1
 268  131  132 2
 269  131  134 1
 270  131  139 am
 271  133  134 1
 272  133  306 1
 273  134  135 1
 274  134  307 1
 275  135  136 1
 276  135  308 1
 277  135  309 1
 278  136  310 1
 279  137  138 2
 280  137  140 1
 281  137  146 am
 282  139  140 1
 283  139  311 1
 284  140  141 1
 285  140  312 1
 286  141  142 1
 287  141  143 1
 288  141  313 1
 289  142  314 1
 290  142  315 1
 291  142  316 1
 292  143  317 1
 293  144  145 2
 294  144  147 1
 295  144  152 1
 296  146  147 1
 297  146  318 1
 298  147  148 1
 299  147  319 1
 300  148  149 1
 301  148  320 1
 302  148  321 1
 303  149  150 1
 304  149  151 1
 305  149  322 1
 306  150  323 1
 307  150  324 1
 308  150  325 1
 309  151  326 1
 310  151  327 1
 311  151  328 1
 312  152  329 1
 313  153  154 2
 314  153  169 1
 315  155  156 1
 316  155  330 1
 317  155  331 1
 318  155  332 1
 319  156  157 1
 320  156  333 1
 321  156  334 1
 322  157  158 1
 323  157  335 1
 324  157  336 1
 325  158  159 1
 326  158  337 1
 327  158  338 1
 328  159  160 1
 329  159  339 1
 330  159  340 1
 331  160  161 1
 332  160  341 1
 333  160  342 1
 334  161  162 1
 335  161  343 1
 336  161  344 1
 337  162  163 1
 338  162  345 1
 339  162  346 1
 340  163  164 1
 341  163  347 1
 342  163  348 1
 343  164  165 1
 344  164  349 1
 345  164  350 1
 346  165  166 1
 347  165  351 1
 348  165  352 1
 349  166  167 1
 350  166  353 1
 351  166  354 1
 352  167  168 1
 353  167  355 1
 354  167  356 1
 355  168  169 1
 356  168  357 1
 357  168  358 1
 358  169  359 1
 359  169  360 1

#	End of record

