#	Name: ASD00170544
#	Creating user name:	WinNT
#	Creation time:	15. 06. 2019 18:32

#	Modifying user name:	WinNT
#	Modification time:	15. 06. 2019 18:32

#	Program:	/corina/corina34_cracker 3.40 0067  02.08.2006

@<TRIPOS>MOLECULE
ASD00170544
  50   53    0    0    0
SMALL
NO_CHARGES


@<TRIPOS>ATOM
   1 C1             0.0319     1.4333     0.0493 C.ar    
   2 N2             0.0361     0.0343     0.0377 N.3     
   3 C3            -0.5218    -0.5044     1.2860 C.3     
   4 C4            -0.5730    -2.0317     1.2014 C.3     
   5 N5             0.7807    -2.5523     0.9651 N.3     
   6 C6             1.3386    -2.0136    -0.2832 C.3     
   7 C7             1.3899    -0.4863    -0.1986 C.3     
   8 C8             0.7851    -4.0213     0.9529 C.3     
   9 C9             2.1240    -4.5156     0.4691 C.2     
  10 C10            2.3444    -4.9281    -0.7695 C.2     
  11 S11            4.0129    -5.4299    -0.9752 S.3     
  12 C12            4.4013    -5.0700     0.6449 C.2     
  13 C13            3.3007    -4.5815     1.3100 C.2     
  14 C14            3.3152    -4.1812     2.7169 C.2     
  15 O15            3.6675    -3.0575     3.0265 O.2     
  16 C16            2.9021    -5.1413     3.7631 C.ar    
  17 C17            2.8061    -4.7295     5.0936 C.ar    
  18 C18            2.4204    -5.6292     6.0648 C.ar    
  19 C19            2.1284    -6.9392     5.7224 C.ar    
  20 C20            2.2219    -7.3536     4.4040 C.ar    
  21 C21            2.6010    -6.4615     3.4233 C.ar    
  22 Cl22           1.6441    -8.0664     6.9507 Cl      
  23 N23            5.6490    -5.2399     1.2098 N.pl3   
  24 C24           -1.1728     2.1257     0.0395 C.ar    
  25 C25           -1.1740     3.5079     0.0515 C.ar    
  26 C26            0.0238     4.2018     0.0733 C.ar    
  27 C27            1.2253     3.5133     0.0826 C.ar    
  28 C28            1.2315     2.1320     0.0765 C.ar    
  29 F29            0.0205     5.5527     0.0850 F       
  30 Cl30          -2.6748     1.2556     0.0117 Cl      
  31 H31            0.1089    -0.2075     2.1241 H       
  32 H32           -1.5290    -0.1142     1.4324 H       
  33 H33           -0.9595    -2.4349     2.1374 H       
  34 H34           -1.2254    -2.3287     0.3803 H       
  35 H35            2.3458    -2.4037    -0.4295 H       
  36 H36            0.7080    -2.3105    -1.1212 H       
  37 H37            1.7764    -0.0830    -1.1346 H       
  38 H38            2.0422    -0.1893     0.6226 H       
  39 H39            0.6031    -4.3935     1.9611 H       
  40 H40            0.0021    -4.3814     0.2857 H       
  41 H41            1.5970    -4.9530    -1.5487 H       
  42 H42            3.0339    -3.7084     5.3617 H       
  43 H43            2.3462    -5.3119     7.0944 H       
  44 H44            1.9930    -8.3763     4.1430 H       
  45 H45            2.6731    -6.7856     2.3956 H       
  46 H46            6.3610    -5.6543     0.6976 H       
  47 H47            5.8140    -4.9449     2.1190 H       
  48 H48           -2.1099     4.0468     0.0436 H       
  49 H49            2.1583     4.0569     0.0992 H       
  50 H50            2.1690     1.5959     0.0841 H       
@<TRIPOS>BOND
   1    1    2 1
   2    1   24 ar
   3    1   28 ar
   4    2    3 1
   5    2    7 1
   6    3    4 1
   7    3   31 1
   8    3   32 1
   9    4    5 1
  10    4   33 1
  11    4   34 1
  12    5    6 1
  13    5    8 1
  14    6    7 1
  15    6   35 1
  16    6   36 1
  17    7   37 1
  18    7   38 1
  19    8    9 1
  20    8   39 1
  21    8   40 1
  22    9   10 2
  23    9   13 1
  24   10   11 1
  25   10   41 1
  26   11   12 1
  27   12   13 2
  28   12   23 1
  29   13   14 1
  30   14   15 2
  31   14   16 1
  32   16   17 ar
  33   16   21 ar
  34   17   18 ar
  35   17   42 1
  36   18   19 ar
  37   18   43 1
  38   19   20 ar
  39   19   22 1
  40   20   21 ar
  41   20   44 1
  42   21   45 1
  43   23   46 1
  44   23   47 1
  45   24   25 ar
  46   24   30 1
  47   25   26 ar
  48   25   48 1
  49   26   27 ar
  50   26   29 1
  51   27   28 ar
  52   27   49 1
  53   28   50 1

#	End of record

