#	Name: ASD04880398
#	Creating user name:	WinNT
#	Creation time:	15. 06. 2019 20:53

#	Modifying user name:	WinNT
#	Modification time:	15. 06. 2019 20:53

#	Program:	/corina/corina34_cracker 3.40 0067  02.08.2006

@<TRIPOS>MOLECULE
ASD04880398
  56   59    0    0    0
SMALL
NO_CHARGES


@<TRIPOS>ATOM
   1 C1            -0.0124     1.3685    -0.2490 C.ar    
   2 C2             0.0102    -0.0182    -0.2857 C.ar    
   3 C3             1.2256    -0.6991    -0.2748 C.ar    
   4 C4             2.4131     0.0069    -0.2278 C.ar    
   5 C5             2.3907     1.4035    -0.1912 C.ar    
   6 C6             1.1680     2.0797    -0.2020 C.ar    
   7 C7             3.6539     2.1617    -0.1405 C.2     
   8 N8             4.8330     1.6420    -0.1261 N.2     
   9 N9             5.8660     2.5758    -0.0762 N.am    
  10 C10            5.2848     3.9275    -0.0537 C.3     
  11 C11            3.7659     3.6691    -0.1037 C.3     
  12 O12            1.2437    -2.0584    -0.3100 O.3     
  13 C13            7.1824     2.2880    -0.0516 C.2     
  14 C14            7.1240    -1.4452     0.3527 C.ar    
  15 C15            6.6995    -0.1355     0.2612 C.ar    
  16 C16            7.6299     0.8830     0.0485 C.ar    
  17 C17            8.9852     0.5687    -0.0697 C.ar    
  18 C18            9.3960    -0.7447     0.0242 C.ar    
  19 C19            8.4683    -1.7497     0.2352 C.ar    
  20 O20            8.0020     3.1843    -0.1119 O.2     
  21 C21            3.1644     4.2742    -1.3459 C.ar    
  22 C22            2.1245     5.1789    -1.2402 C.ar    
  23 C23            1.5728     5.7340    -2.3796 C.ar    
  24 C24            2.0612     5.3847    -3.6248 C.ar    
  25 C25            3.1017     4.4808    -3.7305 C.ar    
  26 C26            3.6563     3.9290    -2.5908 C.ar    
  27 O27           -1.1565    -0.7143    -0.3320 O.3     
  28 C28            2.5251    -2.6908    -0.2963 C.3     
  29 C29           -2.3660     0.0466    -0.3402 C.3     
  30 C30           10.8582    -1.0860    -0.1036 C.3     
  31 N31           11.4871    -1.0509     1.2235 N.3     
  32 H32           -0.9568     1.8924    -0.2617 H       
  33 H33            3.3559    -0.5198    -0.2189 H       
  34 H34            1.1475     3.1591    -0.1738 H       
  35 H35            5.5592     4.4478     0.8639 H       
  36 H36            5.6023     4.4961    -0.9278 H       
  37 H37            3.2830     4.0667     0.7889 H       
  38 H38            6.4057    -2.2338     0.5217 H       
  39 H39            5.6497     0.1008     0.3528 H       
  40 H40            9.7101     1.3520    -0.2347 H       
  41 H41            8.7953    -2.7765     0.3076 H       
  42 H42            1.7430     5.4517    -0.2674 H       
  43 H43            0.7599     6.4402    -2.2971 H       
  44 H44            1.6296     5.8179    -4.5150 H       
  45 H45            3.4830     4.2077    -4.7033 H       
  46 H46            4.4717     3.2256    -2.6732 H       
  47 H47            3.0991    -2.3676    -1.1648 H       
  48 H48            3.0570    -2.4143     0.6141 H       
  49 H49            2.3967    -3.7727    -0.3277 H       
  50 H50           -2.4213     0.6509     0.5653 H       
  51 H51           -2.3792     0.6987    -1.2135 H       
  52 H52           -3.2202    -0.6294    -0.3786 H       
  53 H53           10.9625    -2.0842    -0.5288 H       
  54 H54           11.3450    -0.3607    -0.7556 H       
  55 H55           11.0122    -1.6680     1.8651 H       
  56 H56           12.4688    -1.2765     1.1646 H       
@<TRIPOS>BOND
   1    1    2 ar
   2    1    6 ar
   3    1   32 1
   4    2    3 ar
   5    2   27 1
   6    3    4 ar
   7    3   12 1
   8    4    5 ar
   9    4   33 1
  10    5    6 ar
  11    5    7 1
  12    6   34 1
  13    7    8 2
  14    7   11 1
  15    8    9 1
  16    9   10 1
  17    9   13 am
  18   10   11 1
  19   10   35 1
  20   10   36 1
  21   11   21 1
  22   11   37 1
  23   12   28 1
  24   13   16 1
  25   13   20 2
  26   14   15 ar
  27   14   19 ar
  28   14   38 1
  29   15   16 ar
  30   15   39 1
  31   16   17 ar
  32   17   18 ar
  33   17   40 1
  34   18   19 ar
  35   18   30 1
  36   19   41 1
  37   21   22 ar
  38   21   26 ar
  39   22   23 ar
  40   22   42 1
  41   23   24 ar
  42   23   43 1
  43   24   25 ar
  44   24   44 1
  45   25   26 ar
  46   25   45 1
  47   26   46 1
  48   27   29 1
  49   28   47 1
  50   28   48 1
  51   28   49 1
  52   29   50 1
  53   29   51 1
  54   29   52 1
  55   30   31 1
  56   30   53 1
  57   30   54 1
  58   31   55 1
  59   31   56 1

#	End of record

