#	Name: ASD09900025
#	Creating user name:	WinNT
#	Creation time:	15. 06. 2019 21:24

#	Modifying user name:	WinNT
#	Modification time:	15. 06. 2019 21:24

#	Program:	/corina/corina34_cracker 3.40 0067  02.08.2006

@<TRIPOS>MOLECULE
ASD09900025
  29   30    0    0    0
SMALL
NO_CHARGES


@<TRIPOS>ATOM
   1 C1            -0.0164     1.3596     0.0095 C.ar    
   2 C2             0.0021    -0.0041     0.0020 C.ar    
   3 C3             1.2097    -0.6959    -0.0132 C.ar    
   4 C4             2.4088    -0.0147    -0.0210 C.ar    
   5 C5             2.4135     1.3770    -0.0136 C.ar    
   6 C6             1.1893     2.0739     0.0018 C.ar    
   7 N7             3.4198     2.3139    -0.0174 N.pl3   
   8 C8             2.8536     3.5748    -0.0048 C.2     
   9 C9             1.5000     3.4549     0.0063 C.2     
  10 C10            3.5969     4.8429    -0.0035 C.2     
  11 O11            2.9956     5.9005     0.0082 O.2     
  12 N12            4.9446     4.8341    -0.0153 N.am    
  13 C13            5.6854     6.0980    -0.0140 C.3     
  14 C14            5.8474     6.5927     1.4247 C.3     
  15 C15            7.0658     5.8806    -0.6371 C.3     
  16 F16            1.2071    -2.0469    -0.0200 F       
  17 H17           -0.9583     1.8879     0.0168 H       
  18 H18           -0.9286    -0.5520     0.0083 H       
  19 H19            3.3412    -0.5595    -0.0325 H       
  20 H20            4.3705     2.1217    -0.0274 H       
  21 H21            0.7888     4.2676     0.0172 H       
  22 H22            5.4240     3.9909    -0.0247 H       
  23 H23            5.1378     6.8407    -0.5942 H       
  24 H24            6.3950     5.8500     2.0048 H       
  25 H25            6.3986     7.5331     1.4256 H       
  26 H26            4.8640     6.7476     1.8685 H       
  27 H27            6.9504     5.5281    -1.6620 H       
  28 H28            7.6170     6.8210    -0.6361 H       
  29 H29            7.6134     5.1379    -0.0569 H       
@<TRIPOS>BOND
   1    1    2 ar
   2    1    6 ar
   3    1   17 1
   4    2    3 ar
   5    2   18 1
   6    3    4 ar
   7    3   16 1
   8    4    5 ar
   9    4   19 1
  10    5    7 1
  11    5    6 ar
  12    6    9 1
  13    7    8 1
  14    7   20 1
  15    8    9 2
  16    8   10 1
  17    9   21 1
  18   10   11 2
  19   10   12 am
  20   12   13 1
  21   12   22 1
  22   13   14 1
  23   13   15 1
  24   13   23 1
  25   14   24 1
  26   14   25 1
  27   14   26 1
  28   15   27 1
  29   15   28 1
  30   15   29 1

#	End of record

