#	Name: ASD00190060
#	Creating user name:	WinNT
#	Creation time:	15. 06. 2019 18:33

#	Modifying user name:	WinNT
#	Modification time:	15. 06. 2019 18:33

#	Program:	/corina/corina34_cracker 3.40 0067  02.08.2006

@<TRIPOS>MOLECULE
ASD00190060
  50   54    0    0    0
SMALL
NO_CHARGES


@<TRIPOS>ATOM
   1 C1             0.1384     1.4624     1.1609 C.ar    
   2 C2             0.1852     0.0860     1.3520 C.ar    
   3 C3             1.3375    -0.6126     1.1455 C.ar    
   4 C4             2.4978     0.0606     0.7334 C.ar    
   5 C5             2.4440     1.4613     0.5401 C.ar    
   6 C6             1.2489     2.1485     0.7602 C.ar    
   7 N7             3.6431    -0.6054     0.5244 N.ar    
   8 C8             4.7506    -0.0103     0.1385 C.ar    
   9 C9             4.8096     1.3750    -0.0824 C.ar    
  10 C10            3.6614     2.1505     0.1101 C.ar    
  11 N11            5.7949     2.2527    -0.4779 N.pl3   
  12 C12            5.2438     3.4864    -0.5130 C.2     
  13 N13            3.9873     3.4217    -0.1662 N.2     
  14 N14            5.8932    -0.7729    -0.0555 N.pl3   
  15 C15            5.8292    -2.1615     0.0433 C.ar    
  16 C16            4.6800    -2.8309    -0.3571 C.ar    
  17 C17            4.6149    -4.2175    -0.2594 C.ar    
  18 C18            5.7193    -4.9333     0.2467 C.ar    
  19 C19            6.8663    -4.2447     0.6446 C.ar    
  20 C20            6.9197    -2.8723     0.5378 C.ar    
  21 C21            5.9718     4.7489    -0.8965 C.3     
  22 C22            6.6929     5.3140     0.3289 C.3     
  23 C23            7.4321     6.5958    -0.0605 C.3     
  24 C24            8.4547     6.2825    -1.1546 C.3     
  25 C25            7.7336     5.7174    -2.3799 C.3     
  26 C26            6.9944     4.4356    -1.9906 C.3     
  27 C27            3.4328    -4.9136    -0.6702 C.1     
  28 C28            5.6641    -6.3603     0.3525 C.1     
  29 N29            5.6203    -7.4924     0.4365 N.1     
  30 N30            2.4950    -5.4658    -0.9961 N.1     
  31 H31           -0.7870     1.9937     1.3268 H       
  32 H32           -0.7046    -0.4374     1.6691 H       
  33 H33            1.3574    -1.6815     1.2991 H       
  34 H34            1.2030     3.2176     0.6144 H       
  35 H35            6.7139     2.0273    -0.6912 H       
  36 H36            6.7366    -0.3396    -0.2598 H       
  37 H37            3.8378    -2.2760    -0.7435 H       
  38 H38            7.7146    -4.7889     1.0329 H       
  39 H39            7.8095    -2.3439     0.8469 H       
  40 H40            5.2561     5.4826    -1.2674 H       
  41 H41            5.9644     5.5372     1.1083 H       
  42 H42            7.4086     4.5803     0.6998 H       
  43 H43            6.7164     7.3295    -0.4314 H       
  44 H44            7.9458     6.9984     0.8125 H       
  45 H45            8.9813     7.1957    -1.4320 H       
  46 H46            9.1703     5.5488    -0.7837 H       
  47 H47            7.0179     6.4511    -2.7508 H       
  48 H48            8.4621     5.4942    -3.1594 H       
  49 H49            7.7101     3.7019    -1.6197 H       
  50 H50            6.4807     4.0330    -2.8635 H       
@<TRIPOS>BOND
   1    1    2 ar
   2    1    6 ar
   3    1   31 1
   4    2    3 ar
   5    2   32 1
   6    3    4 ar
   7    3   33 1
   8    4    5 ar
   9    4    7 ar
  10    5    6 ar
  11    5   10 ar
  12    6   34 1
  13    7    8 ar
  14    8    9 ar
  15    8   14 1
  16    9   10 ar
  17    9   11 1
  18   10   13 1
  19   11   12 1
  20   11   35 1
  21   12   13 2
  22   12   21 1
  23   14   15 1
  24   14   36 1
  25   15   16 ar
  26   15   20 ar
  27   16   17 ar
  28   16   37 1
  29   17   18 ar
  30   17   27 1
  31   18   19 ar
  32   18   28 1
  33   19   20 ar
  34   19   38 1
  35   20   39 1
  36   21   22 1
  37   21   26 1
  38   21   40 1
  39   22   23 1
  40   22   41 1
  41   22   42 1
  42   23   24 1
  43   23   43 1
  44   23   44 1
  45   24   25 1
  46   24   45 1
  47   24   46 1
  48   25   26 1
  49   25   47 1
  50   25   48 1
  51   26   49 1
  52   26   50 1
  53   27   30 3
  54   28   29 3

#	End of record

