#	Name: ASD01028166
#	Creating user name:	WinNT
#	Creation time:	15. 06. 2019 18:56

#	Modifying user name:	WinNT
#	Modification time:	15. 06. 2019 18:56

#	Program:	/corina/corina34_cracker 3.40 0067  02.08.2006

@<TRIPOS>MOLECULE
ASD01028166
  55   58    0    0    0
SMALL
NO_CHARGES


@<TRIPOS>ATOM
   1 C1            -0.1648     1.1053    -0.3709 C.ar    
   2 C2             0.1203    -0.2575    -0.1776 C.ar    
   3 C3             1.4510    -0.6473     0.0116 C.ar    
   4 C4             2.4303     0.3302    -0.0001 C.ar    
   5 C5             2.0717     1.6518    -0.1963 C.ar    
   6 N6             0.8118     1.9992    -0.3729 N.ar    
   7 C7            -0.9625    -1.2576    -0.1739 C.2     
   8 O8            -2.1229    -0.8977    -0.2279 O.2     
   9 N9            -0.6666    -2.5710    -0.1105 N.am    
  10 N10           -1.4714     1.5138    -0.5656 N.pl3   
  11 C11           -1.7883     2.9419    -0.6451 C.3     
  12 C12           -5.4868     3.3867    -0.0153 C.ar    
  13 C13           -4.1342     3.2275     0.2195 C.ar    
  14 C14           -3.2698     3.1166    -0.8588 C.ar    
  15 C15           -3.8007     3.1707    -2.1385 C.ar    
  16 C16           -5.1642     3.3322    -2.2956 C.ar    
  17 N17           -5.9567     3.4338    -1.2465 N.ar    
  18 C18           -1.6928    -3.5143     0.0026 C.ar    
  19 C19           -1.5595    -4.7611    -0.5930 C.ar    
  20 C20           -2.5784    -5.6933    -0.4783 C.ar    
  21 C21           -3.7292    -5.3788     0.2314 C.ar    
  22 C22           -3.8604    -4.1372     0.8233 C.ar    
  23 C23           -2.8444    -3.2070     0.7160 C.ar    
  24 C24           -5.1114    -3.7992     1.5925 C.3     
  25 F25           -5.9845    -4.8919     1.5663 F       
  26 F26           -4.7775    -3.5007     2.9179 F       
  27 F27           -5.7335    -2.6910     1.0075 F       
  28 O28           -2.4512    -6.9146    -1.0607 O.3     
  29 C29           -1.2405    -7.1695    -1.7756 C.3     
  30 N30           -0.0739   -10.2691    -2.6326 N.3     
  31 C31           -0.0804    -8.9300    -3.2506 C.3     
  32 C32           -1.2796    -8.5843    -2.3568 C.3     
  33 C33           -0.6834    -9.6586    -1.4364 C.3     
  34 H34            1.7072    -1.6854     0.1633 H       
  35 H35            3.4670     0.0634     0.1433 H       
  36 H36            2.8376     2.4131    -0.2047 H       
  37 H37            0.2581    -2.8619    -0.1434 H       
  38 H38           -2.1781     0.8548    -0.6495 H       
  39 H39           -1.4950     3.4314     0.2836 H       
  40 H40           -1.2458     3.3886    -1.4783 H       
  41 H41           -6.1673     3.4693     0.8193 H       
  42 H42           -3.7554     3.1899     1.2302 H       
  43 H43           -3.1568     3.0880    -3.0016 H       
  44 H44           -5.5857     3.3753    -3.2890 H       
  45 H45           -0.6636    -5.0039    -1.1451 H       
  46 H46           -4.5232    -6.1054     0.3207 H       
  47 H47           -2.9474    -2.2390     1.1836 H       
  48 H48           -1.1376    -6.4469    -2.5852 H       
  49 H49           -0.3920    -7.0786    -1.0974 H       
  50 H50           -0.7253   -10.8845    -3.0963 H       
  51 H51            0.8111    -8.3442    -3.0269 H       
  52 H52           -0.3208    -8.9436    -4.3137 H       
  53 H53           -2.2465    -8.8467    -2.7861 H       
  54 H54           -1.4350   -10.2896    -0.9620 H       
  55 H55            0.0471    -9.2672    -0.7285 H       
@<TRIPOS>BOND
   1    1    2 ar
   2    1    6 ar
   3    1   10 1
   4    2    3 ar
   5    2    7 1
   6    3    4 ar
   7    3   34 1
   8    4    5 ar
   9    4   35 1
  10    5    6 ar
  11    5   36 1
  12    7    8 2
  13    7    9 am
  14    9   18 1
  15    9   37 1
  16   10   11 1
  17   10   38 1
  18   11   14 1
  19   11   39 1
  20   11   40 1
  21   12   13 ar
  22   12   17 ar
  23   12   41 1
  24   13   14 ar
  25   13   42 1
  26   14   15 ar
  27   15   16 ar
  28   15   43 1
  29   16   17 ar
  30   16   44 1
  31   18   19 ar
  32   18   23 ar
  33   19   20 ar
  34   19   45 1
  35   20   21 ar
  36   20   28 1
  37   21   22 ar
  38   21   46 1
  39   22   23 ar
  40   22   24 1
  41   23   47 1
  42   24   25 1
  43   24   26 1
  44   24   27 1
  45   28   29 1
  46   29   32 1
  47   29   48 1
  48   29   49 1
  49   30   31 1
  50   30   33 1
  51   30   50 1
  52   31   32 1
  53   31   51 1
  54   31   52 1
  55   32   33 1
  56   32   53 1
  57   33   54 1
  58   33   55 1

#	End of record

