#	Name: ASD01810716
#	Creating user name:	WinNT
#	Creation time:	15. 06. 2019 19:25

#	Modifying user name:	WinNT
#	Modification time:	15. 06. 2019 19:25

#	Program:	/corina/corina34_cracker 3.40 0067  02.08.2006

@<TRIPOS>MOLECULE
ASD01810716
  57   62    0    0    0
SMALL
NO_CHARGES


@<TRIPOS>ATOM
   1 N1             0.3244     1.2327    -0.7586 N.pl3   
   2 N2             0.3109    -0.0192    -0.4800 N.2     
   3 C3             1.3821    -0.7098    -0.1866 C.2     
   4 C4             2.7043    -0.0373    -0.1658 C.2     
   5 C5             2.7127     1.4017    -0.4873 C.ar    
   6 C6             3.8784     2.1557    -0.5062 C.ar    
   7 C7             3.8144     3.4991    -0.8167 C.ar    
   8 C8             2.5950     4.0915    -1.1072 C.ar    
   9 C9             1.4301     3.3531    -1.0918 C.ar    
  10 C10            1.4720     1.9989    -0.7814 C.ar    
  11 N11            3.0002    -2.1805     0.3524 N.am    
  12 N12            3.5925    -0.9316     0.1495 N.2     
  13 C13            1.6654    -2.1039     0.1623 C.2     
  14 O14            0.8579    -3.0127     0.2617 O.2     
  15 C15           -0.9487     1.8844    -1.0760 C.3     
  16 C16           -1.2000     1.8000    -2.5595 C.ar    
  17 C17           -1.8871     0.7200    -3.0825 C.ar    
  18 C18           -2.1191     0.6398    -4.4417 C.ar    
  19 C19           -1.6620     1.6453    -5.2830 C.ar    
  20 C20           -0.9728     2.7286    -4.7548 C.ar    
  21 C21           -0.7481     2.8056    -3.3942 C.ar    
  22 N22           -1.8954     1.5665    -6.6630 N.pl3   
  23 N23           -2.5731     0.5359    -7.3271 N.2     
  24 C24           -2.5897     0.8145    -8.6057 C.2     
  25 C25           -1.9240     2.0301    -8.7978 C.2     
  26 C26           -1.5113     2.4749    -7.5882 C.2     
  27 C27            5.7328     2.0577     1.1396 C.3     
  28 C28            5.2038     1.5122    -0.1894 C.3     
  29 C29            6.2078     1.8343    -1.3005 C.3     
  30 C30            7.5706     1.2413    -0.9298 C.3     
  31 C31            8.0082     1.7973     0.4278 C.3     
  32 O32            7.0161     1.4897     1.4092 O.3     
  33 C33            5.8568     3.5802     1.0530 C.3     
  34 H34            4.7176     4.0911    -0.8330 H       
  35 H35            2.5567     5.1436    -1.3481 H       
  36 H36            0.4867     3.8265    -1.3204 H       
  37 H37            3.4796    -2.9880     0.5956 H       
  38 H38           -1.7562     1.3840    -0.5416 H       
  39 H39           -0.9066     2.9308    -0.7736 H       
  40 H40           -2.2425    -0.0618    -2.4276 H       
  41 H41           -2.6551    -0.2043    -4.8498 H       
  42 H42           -0.6160     3.5123    -5.4068 H       
  43 H43           -0.2154     3.6499    -2.9823 H       
  44 H44           -3.0394     0.2099    -9.3795 H       
  45 H45           -1.7703     2.5277    -9.7440 H       
  46 H46           -0.9705     3.3898    -7.3965 H       
  47 H47            5.0429     1.7940     1.9412 H       
  48 H48            5.0769     0.4321    -0.1151 H       
  49 H49            5.8644     1.4001    -2.2394 H       
  50 H50            6.2977     2.9152    -1.4085 H       
  51 H51            7.4915     0.1558    -0.8705 H       
  52 H52            8.3046     1.5130    -1.6885 H       
  53 H53            8.9574     1.3460     0.7166 H       
  54 H54            8.1263     2.8786     0.3568 H       
  55 H55            4.8623     4.0234     1.0007 H       
  56 H56            6.3748     3.9534     1.9364 H       
  57 H57            6.4215     3.8486     0.1601 H       
@<TRIPOS>BOND
   1    1    2 1
   2    1   10 1
   3    1   15 1
   4    2    3 2
   5    3    4 1
   6    3   13 1
   7    4    5 1
   8    4   12 2
   9    5    6 ar
  10    5   10 ar
  11    6    7 ar
  12    6   28 1
  13    7    8 ar
  14    7   34 1
  15    8    9 ar
  16    8   35 1
  17    9   10 ar
  18    9   36 1
  19   11   12 1
  20   11   13 am
  21   11   37 1
  22   13   14 2
  23   15   16 1
  24   15   38 1
  25   15   39 1
  26   16   17 ar
  27   16   21 ar
  28   17   18 ar
  29   17   40 1
  30   18   19 ar
  31   18   41 1
  32   19   20 ar
  33   19   22 1
  34   20   21 ar
  35   20   42 1
  36   21   43 1
  37   22   23 1
  38   22   26 1
  39   23   24 2
  40   24   25 1
  41   24   44 1
  42   25   26 2
  43   25   45 1
  44   26   46 1
  45   27   28 1
  46   27   32 1
  47   27   33 1
  48   27   47 1
  49   28   29 1
  50   28   48 1
  51   29   30 1
  52   29   49 1
  53   29   50 1
  54   30   31 1
  55   30   51 1
  56   30   52 1
  57   31   32 1
  58   31   53 1
  59   31   54 1
  60   33   55 1
  61   33   56 1
  62   33   57 1

#	End of record

