#	Name: ASD02408023
#	Creating user name:	WinNT
#	Creation time:	15. 06. 2019 20:21

#	Modifying user name:	WinNT
#	Modification time:	15. 06. 2019 20:21

#	Program:	/corina/corina34_cracker 3.40 0067  02.08.2006

@<TRIPOS>MOLECULE
ASD02408023
  29   30    0    0    0
SMALL
NO_CHARGES


@<TRIPOS>ATOM
   1 C1            -0.0167     1.3782     0.0096 C.ar    
   2 C2             0.0021    -0.0041     0.0020 C.ar    
   3 C3             1.2782     2.1491     0.0014 C.3     
   4 C4             1.6963     2.4137    -1.4221 C.2     
   5 N5             2.8365     3.0949    -1.6501 N.am    
   6 N6             0.9449     1.9709    -2.3927 N.2     
   7 C7             1.2671     2.1760    -3.6771 C.2     
   8 C8             2.4415     2.8845    -3.9865 C.2     
   9 C9             3.2415     3.3499    -2.9119 C.2     
  10 S10            0.2308     1.5641    -4.9641 S.3     
  11 O11            4.2697     3.9695    -3.1233 O.2     
  12 C12           -1.1852    -0.7116     0.0096 C.ar    
  13 C13           -2.3926    -0.0363     0.0247 C.ar    
  14 C14           -2.4107     1.3471     0.0323 C.ar    
  15 C15           -1.2228     2.0536     0.0190 C.ar    
  16 C16           -1.0651     0.7760    -3.9763 C.3     
  17 Cl17          -3.8842    -0.9243     0.0336 Cl      
  18 C18            2.8210     3.1247    -5.3462 C.1     
  19 N19            3.1221     3.3153    -6.4248 N.1     
  20 H20            0.9446    -0.5312    -0.0102 H       
  21 H21            1.1401     3.0969     0.5217 H       
  22 H22            2.0505     1.5675     0.5048 H       
  23 H23            3.3700     3.4046    -0.9015 H       
  24 H24           -1.1704    -1.7915     0.0033 H       
  25 H25           -3.3529     1.8749     0.0441 H       
  26 H26           -1.2368     3.1335     0.0249 H       
  27 H27           -1.8092     0.3344    -4.6391 H       
  28 H28           -0.6245    -0.0031    -3.3542 H       
  29 H29           -1.5419     1.5222    -3.3407 H       
@<TRIPOS>BOND
   1    1    2 ar
   2    1    3 1
   3    1   15 ar
   4    2   12 ar
   5    2   20 1
   6    3    4 1
   7    3   21 1
   8    3   22 1
   9    4    5 1
  10    4    6 2
  11    5    9 am
  12    5   23 1
  13    6    7 1
  14    7    8 2
  15    7   10 1
  16    8    9 1
  17    8   18 1
  18    9   11 2
  19   10   16 1
  20   12   13 ar
  21   12   24 1
  22   13   14 ar
  23   13   17 1
  24   14   15 ar
  25   14   25 1
  26   15   26 1
  27   16   27 1
  28   16   28 1
  29   16   29 1
  30   18   19 3

#	End of record

