#	Name: ASD03200096
#	Creating user name:	WinNT
#	Creation time:	15. 06. 2019 20:34

#	Modifying user name:	WinNT
#	Modification time:	15. 06. 2019 20:34

#	Program:	/corina/corina34_cracker 3.40 0067  02.08.2006

@<TRIPOS>MOLECULE
ASD03200096
  20   21    0    0    0
SMALL
NO_CHARGES


@<TRIPOS>ATOM
   1 N1            -0.0111     0.9658     0.0074 N.pl3   
   2 C2            -1.6618     4.2170     0.0356 C.ar    
   3 C3            -1.1184     5.4996     0.0405 C.ar    
   4 C4            -1.9520     6.6022     0.0539 C.ar    
   5 C5            -3.3272     6.4358     0.0630 C.ar    
   6 C6            -3.8759     5.1652     0.0583 C.ar    
   7 C7             0.6379     3.0523     0.0124 C.2     
   8 C8             1.0715     1.7730     0.0013 C.2     
   9 N9            -1.1563     1.7722     0.0165 N.2     
  10 C10           -0.7705     3.0307     0.0218 C.2     
  11 C11           -3.0489     4.0516     0.0498 C.ar    
  12 O12           -3.5867     2.8029     0.0447 O.3     
  13 F13           -5.2178     5.0094     0.0720 F       
  14 F14           -1.4240     7.8457     0.0585 F       
  15 H15            0.0021    -0.0041     0.0020 H       
  16 H16           -0.0466     5.6324     0.0341 H       
  17 H17           -3.9737     7.3009     0.0742 H       
  18 H18            1.2604     3.9348     0.0143 H       
  19 H19            2.1027     1.4521    -0.0099 H       
  20 H20           -3.7451     2.4465    -0.8401 H       
@<TRIPOS>BOND
   1    1   15 1
   2    1    8 1
   3    1    9 1
   4    2   10 1
   5    2    3 ar
   6    2   11 ar
   7    3   16 1
   8    3    4 ar
   9    4   14 1
  10    4    5 ar
  11    5   17 1
  12    5    6 ar
  13    6   11 ar
  14    6   13 1
  15    7   10 1
  16    7    8 2
  17    7   18 1
  18    8   19 1
  19    9   10 2
  20   11   12 1
  21   12   20 1

#	End of record

