#	Name: ASD03430168
#	Creating user name:	WinNT
#	Creation time:	15. 06. 2019 20:40

#	Modifying user name:	WinNT
#	Modification time:	15. 06. 2019 20:40

#	Program:	/corina/corina34_cracker 3.40 0067  02.08.2006

@<TRIPOS>MOLECULE
ASD03430168
  52   57    0    0    0
SMALL
NO_CHARGES


@<TRIPOS>ATOM
   1 C1            -0.0167     1.3806     0.0096 C.ar    
   2 C2             0.0021    -0.0041     0.0020 C.ar    
   3 C3             1.2036    -0.6813    -0.0139 C.ar    
   4 C4             2.4093     0.0135    -0.0108 C.ar    
   5 C5             2.3875     1.4050    -0.0078 C.ar    
   6 C6             1.1839     2.0869     0.0020 C.ar    
   7 O7             3.4720    -0.8413     0.0009 O.3     
   8 C8             1.5522    -2.1452    -0.0506 C.3     
   9 C9             3.0383    -2.1442    -0.4345 C.3     
  10 C10            0.4250    -3.8608     1.0010 C.ar    
  11 C11            1.3146    -2.8228     1.2661 C.ar    
  12 C12            0.7195    -2.9031    -1.0444 C.2     
  13 N13            0.0967    -3.8809    -0.3567 N.am    
  14 O14            0.6255    -2.6791    -2.2327 O.2     
  15 C15            1.7808    -2.6090     2.5442 C.ar    
  16 C16            1.3661    -3.4280     3.5792 C.ar    
  17 C17            0.4823    -4.4616     3.3274 C.ar    
  18 C18            0.0127    -4.6802     2.0491 C.ar    
  19 C19           -0.8178    -4.8519    -0.9627 C.3     
  20 C20           -2.2242    -4.3125    -0.9190 C.2     
  21 C21           -2.8009    -3.5655    -1.8728 C.2     
  22 C22           -4.1618    -3.2803    -1.3952 C.2     
  23 C23           -4.2621    -3.8970    -0.1825 C.2     
  24 O24           -3.1019    -4.5075     0.0775 O.3     
  25 C25           -5.2004    -2.4922    -2.0825 C.2     
  26 N26           -4.9433    -1.9428    -3.2860 N.am    
  27 O27           -6.2893    -2.3376    -1.5636 O.2     
  28 O28           -1.0497     2.2737     0.0188 O.3     
  29 C29           -0.4708     3.5264     0.4297 C.3     
  30 O30            0.9023     3.4232     0.0057 O.3     
  31 C31           -5.9756    -1.1594    -3.9692 C.3     
  32 C32           -5.4763    -3.8943     0.7101 C.3     
  33 F33           -6.2900    -4.9874     0.3938 F       
  34 F34           -5.0727    -3.9846     2.0466 F       
  35 F35           -6.1933    -2.7083     0.5186 F       
  36 H36           -0.9267    -0.5552     0.0089 H       
  37 H37            3.3163     1.9561    -0.0128 H       
  38 H38            3.1598    -2.2525    -1.5123 H       
  39 H39            3.5761    -2.9290     0.0975 H       
  40 H40            2.4710    -1.8015     2.7386 H       
  41 H41            1.7319    -3.2608     4.5815 H       
  42 H42            0.1587    -5.1009     4.1354 H       
  43 H43           -0.6773    -5.4893     1.8603 H       
  44 H44           -0.5277    -5.0268    -1.9987 H       
  45 H45           -0.7709    -5.7897    -0.4090 H       
  46 H46           -2.3561    -3.2399    -2.8016 H       
  47 H47           -4.0747    -2.0661    -3.6999 H       
  48 H48           -0.9634     4.3590    -0.0725 H       
  49 H49           -0.5327     3.6400     1.5120 H       
  50 H50           -6.8493    -1.7864    -4.1472 H       
  51 H51           -6.2585    -0.3102    -3.3471 H       
  52 H52           -5.5872    -0.7987    -4.9216 H       
@<TRIPOS>BOND
   1    1    2 ar
   2    1    6 ar
   3    1   28 1
   4    2    3 ar
   5    2   36 1
   6    3    4 ar
   7    3    8 1
   8    4    5 ar
   9    4    7 1
  10    5    6 ar
  11    5   37 1
  12    6   30 1
  13    7    9 1
  14    8    9 1
  15    8   11 1
  16    8   12 1
  17    9   38 1
  18    9   39 1
  19   10   11 ar
  20   10   13 1
  21   10   18 ar
  22   11   15 ar
  23   12   13 am
  24   12   14 2
  25   13   19 1
  26   15   16 ar
  27   15   40 1
  28   16   17 ar
  29   16   41 1
  30   17   18 ar
  31   17   42 1
  32   18   43 1
  33   19   20 1
  34   19   44 1
  35   19   45 1
  36   20   21 2
  37   20   24 1
  38   21   22 1
  39   21   46 1
  40   22   23 2
  41   22   25 1
  42   23   24 1
  43   23   32 1
  44   25   26 am
  45   25   27 2
  46   26   31 1
  47   26   47 1
  48   28   29 1
  49   29   30 1
  50   29   48 1
  51   29   49 1
  52   31   50 1
  53   31   51 1
  54   31   52 1
  55   32   33 1
  56   32   34 1
  57   32   35 1

#	End of record

