#	Name: ASD02508497
#	Creating user name:	WinNT
#	Creation time:	15. 06. 2019 20:24

#	Modifying user name:	WinNT
#	Modification time:	15. 06. 2019 20:24

#	Program:	/corina/corina34_cracker 3.40 0067  02.08.2006

@<TRIPOS>MOLECULE
ASD02508497
  33   35    0    0    0
SMALL
NO_CHARGES


@<TRIPOS>ATOM
   1 N1             1.2531     1.7414     0.0187 N.2     
   2 C2             2.1639     0.7733     0.2002 C.2     
   3 C3             1.5639    -0.4137    -0.0086 C.2     
   4 N4             0.2557    -0.1474    -0.3243 N.pl3   
   5 C5             0.1064     1.2035    -0.2957 C.2     
   6 C6            -0.7335    -1.0848    -0.6191 C.2     
   7 S7             2.3149    -2.0038     0.1015 S.o2    
   8 N8             2.3254    -2.6477    -1.4242 N.am    
   9 C9             3.0111    -1.9955    -2.4535 C.ar    
  10 C10            2.3900    -1.7832    -3.6776 C.ar    
  11 O11            3.6739    -1.7823     0.4529 O.2     
  12 O12            1.4347    -2.8109     0.8716 O.2     
  13 C13            4.3121    -1.5542    -2.2517 C.ar    
  14 C14            4.9877    -0.9101    -3.2701 C.ar    
  15 C15            4.3686    -0.7046    -4.4912 C.ar    
  16 C16            3.0691    -1.1389    -4.6928 C.ar    
  17 C17            2.3981    -0.9141    -6.0233 C.3     
  18 N18           -1.9875    -0.8103    -0.7937 N.2     
  19 C19           -2.7887    -1.8218    -1.0673 C.2     
  20 C20           -2.1820    -3.0097    -1.1269 C.2     
  21 S21           -0.4667    -2.7627    -0.8101 S.3     
  22 F22            5.0310    -0.0741    -5.4856 F       
  23 H23            3.1999     0.9208     0.4674 H       
  24 H24           -0.8077     1.7413    -0.4991 H       
  25 H25            1.8558    -3.4772    -1.6038 H       
  26 H26            1.3767    -2.1220    -3.8354 H       
  27 H27            4.7953    -1.7140    -1.2991 H       
  28 H28            5.9995    -0.5664    -3.1134 H       
  29 H29            2.5905    -1.7659    -6.6757 H       
  30 H30            1.3237    -0.8057    -5.8746 H       
  31 H31            2.7946    -0.0083    -6.4819 H       
  32 H32           -3.8494    -1.6991    -1.2293 H       
  33 H33           -2.6588    -3.9559    -1.3364 H       
@<TRIPOS>BOND
   1    1    2 1
   2    1    5 2
   3    2    3 2
   4    2   23 1
   5    3    4 1
   6    3    7 1
   7    4    5 1
   8    4    6 1
   9    5   24 1
  10    6   18 2
  11    6   21 1
  12    7    8 am
  13    7   11 2
  14    7   12 2
  15    8    9 1
  16    8   25 1
  17    9   13 ar
  18    9   10 ar
  19   10   16 ar
  20   10   26 1
  21   13   14 ar
  22   13   27 1
  23   14   15 ar
  24   14   28 1
  25   15   16 ar
  26   15   22 1
  27   16   17 1
  28   17   29 1
  29   17   30 1
  30   17   31 1
  31   18   19 1
  32   19   20 2
  33   19   32 1
  34   20   21 1
  35   20   33 1

#	End of record

