#	Name: ASD01910176
#	Creating user name:	WinNT
#	Creation time:	15. 06. 2019 19:55

#	Modifying user name:	WinNT
#	Modification time:	15. 06. 2019 19:55

#	Program:	/corina/corina34_cracker 3.40 0067  02.08.2006

@<TRIPOS>MOLECULE
ASD01910176
  40   42    0    0    0
SMALL
NO_CHARGES


@<TRIPOS>ATOM
   1 C1             0.1653     1.6632    -0.3713 C.ar    
   2 C2             0.1013     0.2850    -0.3049 C.ar    
   3 C3             1.2657    -0.4600    -0.1616 C.ar    
   4 C4             2.4932     0.1820    -0.0852 C.ar    
   5 C5             2.5540     1.5668    -0.1522 C.ar    
   6 C6             1.3863     2.3057    -0.2955 C.ar    
   7 N7             3.7893     2.2179    -0.0751 N.am    
   8 C8             4.0030     3.3438    -0.7844 C.2     
   9 C9             5.2633     4.0970    -0.6133 C.ar    
  10 N10            1.2000    -1.8553    -0.0940 N.am    
  11 C11            2.1783    -2.6033    -0.6417 C.2     
  12 C12            5.4878     5.2633    -1.3463 C.ar    
  13 C13            6.6659     5.9624    -1.1820 C.ar    
  14 C14            7.6245     5.5098    -0.2934 C.ar    
  15 C15            7.4087     4.3533     0.4374 C.ar    
  16 C16            6.2317     3.6479     0.2864 C.ar    
  17 O17            3.1590    -2.0663    -1.1191 O.2     
  18 O18            3.1594     3.7399    -1.5648 O.2     
  19 C19            2.0589    -4.0759    -0.6619 C.ar    
  20 Cl20           8.6178     3.7933     1.5502 Cl      
  21 C21            3.0707    -4.8532    -1.2285 C.ar    
  22 C22            2.9542    -6.2274    -1.2448 C.ar    
  23 C23            1.8364    -6.8370    -0.7006 C.ar    
  24 C24            0.8278    -6.0710    -0.1367 C.ar    
  25 C25            0.9363    -4.6956    -0.1091 C.ar    
  26 Cl26           1.6971    -8.5673    -0.7249 Cl      
  27 Cl27          -0.5704    -6.8437     0.5429 Cl      
  28 H28           -0.7406     2.2397    -0.4873 H       
  29 H29           -0.8546    -0.2142    -0.3641 H       
  30 H30            3.3995    -0.3947     0.0266 H       
  31 H31            1.4329     3.3834    -0.3481 H       
  32 H32            4.4922     1.8591     0.4888 H       
  33 H33            0.4504    -2.2848     0.3471 H       
  34 H34            4.7407     5.6178    -2.0411 H       
  35 H35            6.8403     6.8650    -1.7488 H       
  36 H36            8.5452     6.0605    -0.1691 H       
  37 H37            6.0639     2.7463     0.8568 H       
  38 H38            3.9430    -4.3793    -1.6538 H       
  39 H39            3.7363    -6.8293    -1.6833 H       
  40 H40            0.1503    -4.0994     0.3303 H       
@<TRIPOS>BOND
   1    1    2 ar
   2    1    6 ar
   3    1   28 1
   4    2    3 ar
   5    2   29 1
   6    3    4 ar
   7    3   10 1
   8    4    5 ar
   9    4   30 1
  10    5    6 ar
  11    5    7 1
  12    6   31 1
  13    7    8 am
  14    7   32 1
  15    8    9 1
  16    8   18 2
  17    9   12 ar
  18    9   16 ar
  19   10   11 am
  20   10   33 1
  21   11   17 2
  22   11   19 1
  23   12   13 ar
  24   12   34 1
  25   13   14 ar
  26   13   35 1
  27   14   15 ar
  28   14   36 1
  29   15   16 ar
  30   15   20 1
  31   16   37 1
  32   19   21 ar
  33   19   25 ar
  34   21   22 ar
  35   21   38 1
  36   22   23 ar
  37   22   39 1
  38   23   24 ar
  39   23   26 1
  40   24   25 ar
  41   24   27 1
  42   25   40 1

#	End of record

