#	Name: ASD00850001
#	Creating user name:	WinNT
#	Creation time:	15. 06. 2019 18:53

#	Modifying user name:	WinNT
#	Modification time:	15. 06. 2019 18:53

#	Program:	/corina/corina34_cracker 3.40 0067  02.08.2006

@<TRIPOS>MOLECULE
ASD00850001
  26   28    0    0    0
SMALL
NO_CHARGES


@<TRIPOS>ATOM
   1 C1            -0.0164     1.3595     0.0095 C.ar    
   2 C2             0.0021    -0.0041     0.0020 C.ar    
   3 C3             1.2044    -0.7005    -0.0132 C.ar    
   4 C4             2.3967    -0.0342    -0.0205 C.ar    
   5 C5             2.4118     1.3623    -0.0132 C.ar    
   6 C6             3.6758     2.1058    -0.0213 C.ar    
   7 C7             4.9085     1.4510    -0.0365 C.ar    
   8 C8             6.0628     2.1821    -0.0441 C.ar    
   9 C9             6.0251     3.5707    -0.0368 C.ar    
  10 C10            4.8343     4.2386    -0.0218 C.ar    
  11 C11            3.6354     3.5176    -0.0138 C.ar    
  12 C12            2.3413     4.1996     0.0028 C.ar    
  13 C13            1.1867     3.4872     0.0109 C.ar    
  14 C14            1.1914     2.0747     0.0018 C.ar    
  15 N15            2.2941     5.5920     0.0107 N.pl3   
  16 H16           -0.9583     1.8880     0.0168 H       
  17 H17           -0.9299    -0.5498     0.0083 H       
  18 H18            1.1960    -1.7805    -0.0189 H       
  19 H19            3.3252    -0.5857    -0.0317 H       
  20 H20            4.9497     0.3718    -0.0420 H       
  21 H21            7.0159     1.6743    -0.0556 H       
  22 H22            6.9495     4.1291    -0.0426 H       
  23 H23            4.8180     5.3185    -0.0163 H       
  24 H24            0.2428     4.0119     0.0234 H       
  25 H25            3.1172     6.1052     0.0053 H       
  26 H26            1.4382     6.0482     0.0217 H       
@<TRIPOS>BOND
   1    1    2 ar
   2    1   14 ar
   3    1   16 1
   4    2    3 ar
   5    2   17 1
   6    3    4 ar
   7    3   18 1
   8    4    5 ar
   9    4   19 1
  10    5    6 ar
  11    5   14 ar
  12    6    7 ar
  13    6   11 ar
  14    7    8 ar
  15    7   20 1
  16    8    9 ar
  17    8   21 1
  18    9   10 ar
  19    9   22 1
  20   10   11 ar
  21   10   23 1
  22   11   12 ar
  23   12   13 ar
  24   12   15 1
  25   13   14 ar
  26   13   24 1
  27   15   25 1
  28   15   26 1

#	End of record

