#	Name: ASD01820035
#	Creating user name:	WinNT
#	Creation time:	15. 06. 2019 19:36

#	Modifying user name:	WinNT
#	Modification time:	15. 06. 2019 19:36

#	Program:	/corina/corina34_cracker 3.40 0067  02.08.2006

@<TRIPOS>MOLECULE
ASD01820035
  59   60    0    0    0
SMALL
NO_CHARGES


@<TRIPOS>ATOM
   1 C1            -0.0167     1.3794     0.0096 C.ar    
   2 C2             0.0021    -0.0041     0.0020 C.ar    
   3 C3            -1.1852    -0.7117     0.0100 C.ar    
   4 C4            -2.3919    -0.0378     0.0252 C.ar    
   5 C5            -2.4120     1.3457     0.0324 C.ar    
   6 C6            -1.2240     2.0543     0.0306 C.ar    
   7 C7            -1.2451     3.5612     0.0388 C.3     
   8 O8            -1.2453     4.0301     1.3887 O.3     
   9 Cl9            1.4747     2.2679     0.0002 Cl      
  10 Cl10          -3.9277     2.1919     0.0502 Cl      
  11 N11           -1.2646     5.4409     1.5083 N.2     
  12 C12           -1.2668     5.9905     2.6784 C.2     
  13 C13           -1.2869     7.4624     2.8032 C.ar    
  14 C14           -1.2897     8.0780     4.0604 C.ar    
  15 C15           -1.3087     9.4559     4.1303 C.ar    
  16 N16           -1.3242    10.1897     3.0343 N.ar    
  17 C17           -1.3227     9.6506     1.8305 C.ar    
  18 C18           -1.2979     8.2806     1.6675 C.ar    
  19 C19           -1.3441    11.6494     3.1580 C.3     
  20 C20            0.0912    12.1778     3.1943 C.3     
  21 C21            0.0704    13.7022     3.3235 C.3     
  22 N22            1.4486    14.2096     3.3583 N.4     
  23 C23            1.4286    15.6732     3.4824 C.3     
  24 C24            2.1547    13.6302     4.5089 C.3     
  25 C25            2.1406    13.8326     2.1186 C.3     
  26 C26            1.4339    14.0228     5.8001 C.3     
  27 C27            2.8639    16.2016     3.5187 C.3     
  28 C28            1.4052    14.4360     0.9203 C.3     
  29 H29            0.9446    -0.5312    -0.0105 H       
  30 H30           -1.1701    -1.7915     0.0041 H       
  31 H31           -3.3194    -0.5912     0.0311 H       
  32 H32           -0.3627     3.9397    -0.4771 H       
  33 H33           -2.1425     3.9148    -0.4688 H       
  34 H34           -1.2540     5.3736     3.5648 H       
  35 H35           -1.2774     7.4834     4.9619 H       
  36 H36           -1.3114     9.9403     5.0956 H       
  37 H37           -1.3365    10.2904     0.9604 H       
  38 H38           -1.2967     7.8461     0.6788 H       
  39 H39           -1.8681    12.0792     2.3043 H       
  40 H40           -1.8576    11.9291     4.0779 H       
  41 H41            0.6152    11.7479     4.0480 H       
  42 H42            0.6047    11.8981     2.2744 H       
  43 H43           -0.4535    14.1321     2.4698 H       
  44 H44           -0.4431    13.9819     4.2434 H       
  45 H45            0.9046    16.1030     2.6287 H       
  46 H46            0.9151    15.9529     4.4023 H       
  47 H47            2.1695    12.5442     4.4168 H       
  48 H48            3.1773    14.0067     4.5347 H       
  49 H49            3.1632    14.2091     2.1445 H       
  50 H50            2.1555    12.7466     2.0266 H       
  51 H51            1.9579    13.5930     6.6538 H       
  52 H52            1.4191    15.1088     5.8921 H       
  53 H53            0.4113    13.6464     5.7742 H       
  54 H54            2.8491    17.2876     3.6107 H       
  55 H55            3.3879    15.7717     4.3724 H       
  56 H56            3.3774    15.9219     2.5988 H       
  57 H57            1.9187    14.1563     0.0004 H       
  58 H58            0.3826    14.0595     0.8944 H       
  59 H59            1.3903    15.5220     1.0123 H       
@<TRIPOS>BOND
   1    1    2 ar
   2    1    9 1
   3    1    6 ar
   4    2    3 ar
   5    2   29 1
   6    3    4 ar
   7    3   30 1
   8    4    5 ar
   9    4   31 1
  10    5    6 ar
  11    5   10 1
  12    6    7 1
  13    7    8 1
  14    7   32 1
  15    7   33 1
  16    8   11 1
  17   11   12 2
  18   12   13 1
  19   12   34 1
  20   13   14 ar
  21   13   18 ar
  22   14   15 ar
  23   14   35 1
  24   15   16 ar
  25   15   36 1
  26   16   17 ar
  27   16   19 1
  28   17   18 ar
  29   17   37 1
  30   18   38 1
  31   19   20 1
  32   19   39 1
  33   19   40 1
  34   20   21 1
  35   20   41 1
  36   20   42 1
  37   21   22 1
  38   21   43 1
  39   21   44 1
  40   22   23 1
  41   22   24 1
  42   22   25 1
  43   23   27 1
  44   23   45 1
  45   23   46 1
  46   24   26 1
  47   24   47 1
  48   24   48 1
  49   25   28 1
  50   25   49 1
  51   25   50 1
  52   26   51 1
  53   26   52 1
  54   26   53 1
  55   27   54 1
  56   27   55 1
  57   27   56 1
  58   28   57 1
  59   28   58 1
  60   28   59 1

#	End of record

