#	Name: ASD00069281
#	Creating user name:	WinNT
#	Creation time:	15. 06. 2019 18:29

#	Modifying user name:	WinNT
#	Modification time:	15. 06. 2019 18:29

#	Program:	/corina/corina34_cracker 3.40 0067  02.08.2006

@<TRIPOS>MOLECULE
ASD00069281
  96  100    0    0    0
SMALL
NO_CHARGES


@<TRIPOS>ATOM
   1 C1             6.9615    -0.2099     0.6973 C.2     
   2 N2             6.0395    -0.9109     1.3866 N.am    
   3 O3             6.7445     0.1111    -0.4544 O.2     
   4 O4             8.1205     0.1395     1.2866 O.3     
   5 N5             2.9283    -2.8933     0.8065 N.3     
   6 C6             4.2055    -2.5294     1.4332 C.3     
   7 C7             4.7759    -1.2859     0.7473 C.3     
   8 C8             3.7758    -0.1336     0.8767 C.3     
   9 C9             2.4397    -0.5560     0.2594 C.3     
  10 C10            1.9371    -1.8207     0.9595 C.3     
  11 C11            2.4431    -4.1024     1.3210 C.ar    
  12 C12            2.0868    -4.1966     2.6602 C.ar    
  13 C13            1.6074    -5.3924     3.1653 C.ar    
  14 C14            1.4818    -6.4951     2.3400 C.ar    
  15 C15            1.8346    -6.4096     1.0066 C.ar    
  16 C16            2.3109    -5.2132     0.4895 C.ar    
  17 C17            2.9069    -6.2437    -1.5715 C.2     
  18 O18            2.9202    -7.3249    -1.0144 O.2     
  19 N19            2.6628    -5.1235    -0.8630 N.am    
  20 C20            3.1576    -6.1588    -3.0210 C.2     
  21 N21            3.1703    -5.0536    -3.7353 N.2     
  22 C22            3.4312    -5.3612    -5.0106 C.2     
  23 C23            3.5880    -6.7155    -5.0962 C.2     
  24 N24            3.4218    -7.2138    -3.8486 N.pl3   
  25 C25            3.5066    -8.6233    -3.4582 C.3     
  26 O26            3.8001    -9.4192    -4.6082 O.3     
  27 C27            3.9049   -10.8181    -4.3356 C.3     
  28 C28            4.2195   -11.5681    -5.6315 C.3     
  29 Si29           4.3561   -13.3917    -5.2761 Si      
  30 C30            2.7442   -14.0104    -4.5762 C.3     
  31 C31            4.7392   -14.3049    -6.8541 C.3     
  32 C32            5.7214   -13.6835    -4.0427 C.3     
  33 N33            3.6026    -2.5376    -7.2894 N.pl3   
  34 N34            3.7490    -3.6092    -8.1786 N.2     
  35 C35            3.7076    -4.7231    -7.4962 C.2     
  36 C36            3.5321    -4.3981    -6.1376 C.2     
  37 C37            3.4710    -3.0391    -6.0437 C.2     
  38 C38            3.5994    -1.1173    -7.6486 C.3     
  39 C39            4.8858    -0.8973    -9.7906 C.ar    
  40 C40            4.8562    -0.7895    -8.4128 C.ar    
  41 C41            5.9972    -0.3757    -7.7430 C.ar    
  42 C42            7.1304    -0.0844    -8.4873 C.ar    
  43 C43            7.0850    -0.2154    -9.8622 C.ar    
  44 N44            5.9818    -0.6122   -10.4660 N.ar    
  45 F45            2.2087    -3.1215     3.4693 F       
  46 C46            9.0669     0.8937     0.4842 C.3     
  47 C47            8.4221     2.2064     0.0347 C.3     
  48 C48           10.3139     1.1970     1.3171 C.3     
  49 C49            9.4618     0.0725    -0.7449 C.3     
  50 H50            6.2127    -1.1671     2.3059 H       
  51 H51            4.0443    -2.3192     2.4905 H       
  52 H52            4.9089    -3.3557     1.3305 H       
  53 H53            4.9502    -1.4997    -0.3072 H       
  54 H54            3.6308     0.1063     1.9300 H       
  55 H55            4.1588     0.7417     0.3521 H       
  56 H56            1.7109     0.2444     0.3866 H       
  57 H57            2.5773    -0.7584    -0.8027 H       
  58 H58            0.9929    -2.1322     0.5128 H       
  59 H59            1.7865    -1.6138     2.0191 H       
  60 H60            1.3309    -5.4649     4.2068 H       
  61 H61            1.1071    -7.4262     2.7389 H       
  62 H62            1.7356    -7.2732     0.3656 H       
  63 H63            2.7309    -4.2552    -1.2899 H       
  64 H64            3.8070    -7.2814    -5.9896 H       
  65 H65            4.2972    -8.7485    -2.7184 H       
  66 H66            2.5553    -8.9398    -3.0305 H       
  67 H67            4.7037   -10.9888    -3.6139 H       
  68 H68            2.9618   -11.1801    -3.9261 H       
  69 H69            3.4207   -11.3974    -6.3532 H       
  70 H70            5.1626   -11.2061    -6.0410 H       
  71 H71            1.9454   -13.8397    -5.2979 H       
  72 H72            2.8241   -15.0774    -4.3683 H       
  73 H73            2.5200   -13.4761    -3.6530 H       
  74 H74            5.6822   -13.9430    -7.2636 H       
  75 H75            4.8191   -15.3719    -6.6462 H       
  76 H76            3.9403   -14.1342    -7.5758 H       
  77 H77            5.4973   -13.1492    -3.1194 H       
  78 H78            5.8013   -14.7505    -3.8347 H       
  79 H79            6.6645   -13.3215    -4.4522 H       
  80 H80            3.7927    -5.7197    -7.9037 H       
  81 H81            3.3408    -2.4677    -5.1366 H       
  82 H82            2.7299    -0.9015    -8.2696 H       
  83 H83            3.5574    -0.5134    -6.7422 H       
  84 H84            4.0024    -1.2233   -10.3196 H       
  85 H85            6.0033    -0.2821    -6.6671 H       
  86 H86            8.0369     0.2410    -7.9986 H       
  87 H87            7.9634     0.0095   -10.4490 H       
  88 H88            8.1407     2.7915     0.9103 H       
  89 H89            9.1325     2.7726    -0.5676 H       
  90 H90            7.5337     1.9904    -0.5587 H       
  91 H91           10.7732     0.2618     1.6373 H       
  92 H92           11.0243     1.7632     0.7147 H       
  93 H93           10.0326     1.7820     2.1927 H       
  94 H94            8.5733    -0.1436    -1.3383 H       
  95 H95           10.1722     0.6387    -1.3472 H       
  96 H96            9.9211    -0.8627    -0.4247 H       
@<TRIPOS>BOND
   1    1    2 am
   2    1    3 2
   3    1    4 1
   4    2    7 1
   5    2   50 1
   6    4   46 1
   7    5    6 1
   8    5   10 1
   9    5   11 1
  10    6    7 1
  11    6   51 1
  12    6   52 1
  13    7    8 1
  14    7   53 1
  15    8    9 1
  16    8   54 1
  17    8   55 1
  18    9   10 1
  19    9   56 1
  20    9   57 1
  21   10   58 1
  22   10   59 1
  23   11   12 ar
  24   11   16 ar
  25   12   13 ar
  26   12   45 1
  27   13   14 ar
  28   13   60 1
  29   14   15 ar
  30   14   61 1
  31   15   16 ar
  32   15   62 1
  33   16   19 1
  34   17   18 2
  35   17   19 am
  36   17   20 1
  37   19   63 1
  38   20   21 2
  39   20   24 1
  40   21   22 1
  41   22   23 2
  42   22   36 1
  43   23   24 1
  44   23   64 1
  45   24   25 1
  46   25   26 1
  47   25   65 1
  48   25   66 1
  49   26   27 1
  50   27   28 1
  51   27   67 1
  52   27   68 1
  53   28   29 1
  54   28   69 1
  55   28   70 1
  56   29   30 1
  57   29   31 1
  58   29   32 1
  59   30   71 1
  60   30   72 1
  61   30   73 1
  62   31   74 1
  63   31   75 1
  64   31   76 1
  65   32   77 1
  66   32   78 1
  67   32   79 1
  68   33   34 1
  69   33   37 1
  70   33   38 1
  71   34   35 2
  72   35   36 1
  73   35   80 1
  74   36   37 2
  75   37   81 1
  76   38   40 1
  77   38   82 1
  78   38   83 1
  79   39   40 ar
  80   39   44 ar
  81   39   84 1
  82   40   41 ar
  83   41   42 ar
  84   41   85 1
  85   42   43 ar
  86   42   86 1
  87   43   44 ar
  88   43   87 1
  89   46   47 1
  90   46   49 1
  91   46   48 1
  92   47   88 1
  93   47   89 1
  94   47   90 1
  95   48   91 1
  96   48   92 1
  97   48   93 1
  98   49   94 1
  99   49   95 1
 100   49   96 1

#	End of record

