#	Name: ASD08170126
#	Creating user name:	WinNT
#	Creation time:	15. 06. 2019 21:17

#	Modifying user name:	WinNT
#	Modification time:	15. 06. 2019 21:17

#	Program:	/corina/corina34_cracker 3.40 0067  02.08.2006

@<TRIPOS>MOLECULE
ASD08170126
  57   60    0    0    0
SMALL
NO_CHARGES


@<TRIPOS>ATOM
   1 C1            -0.0184     1.5028     0.0103 C.3     
   2 C2             1.4170     2.0324    -0.0006 C.3     
   3 C3             1.3963     3.5622     0.0079 C.3     
   4 C4             2.8101     4.0838    -0.0028 C.2     
   5 C5             0.0021    -0.0041     0.0020 C.2     
   6 S6             3.7998     4.4363     1.4141 S.3     
   7 C7             5.0773     4.9160     0.3785 C.2     
   8 N8             4.6870     4.7829    -0.8532 N.2     
   9 N9             3.5188     4.3485    -1.0542 N.2     
  10 S10            0.0026    -1.0367    -1.4281 S.3     
  11 N11            0.0281    -0.7735     1.0436 N.2     
  12 N12            0.0423    -2.0172     0.8270 N.2     
  13 C13            0.0316    -2.4140    -0.4097 C.2     
  14 N14            0.0439    -3.7376    -0.8365 N.am    
  15 C15            0.0694    -4.7369     0.0675 C.2     
  16 O16            0.0817    -4.4819     1.2531 O.2     
  17 N17            6.3252     5.3728     0.7886 N.am    
  18 C18            7.2498     5.7214    -0.1279 C.2     
  19 C19            8.6020     6.2164     0.3164 C.3     
  20 O20            6.9935     5.6368    -1.3104 O.2     
  21 C21            0.0826    -6.1711    -0.3950 C.3     
  22 C22            9.3337     5.1078     1.0282 C.ar    
  23 C23            1.3644    -6.4476    -1.1377 C.ar    
  24 C24            9.2801     5.0179     2.4066 C.ar    
  25 C25            2.5034    -6.8061    -0.4411 C.ar    
  26 O26           -0.0080    -7.0377     0.7377 O.3     
  27 O27            9.3567     6.6294    -0.8246 O.3     
  28 C28            9.9513     4.0010     3.0595 C.ar    
  29 C29           10.6758     3.0738     2.3340 C.ar    
  30 C30           10.7287     3.1632     0.9556 C.ar    
  31 C31           10.0539     4.1776     0.3024 C.ar    
  32 C32            1.3998    -6.3483    -2.5160 C.ar    
  33 C33            2.5756    -6.6019    -3.1973 C.ar    
  34 C34            3.7161    -6.9544    -2.5002 C.ar    
  35 C35            3.6791    -7.0597    -1.1223 C.ar    
  36 H36           -0.5286     1.8543     0.9071 H       
  37 H37           -0.5455     1.8639    -0.8728 H       
  38 H38            1.9442     1.6713     0.8825 H       
  39 H39            1.9272     1.6808    -0.8974 H       
  40 H40            0.8691     3.9233    -0.8752 H       
  41 H41            0.8861     3.9137     0.9047 H       
  42 H42            0.0340    -3.9415    -1.7848 H       
  43 H43            6.5302     5.4405     1.7343 H       
  44 H44            8.4752     7.0613     0.9934 H       
  45 H45           -0.7657    -6.3475    -1.0562 H       
  46 H46            8.7141     5.7423     2.9734 H       
  47 H47            2.4747    -6.8876     0.6355 H       
  48 H48            0.7161    -6.9352     1.3703 H       
  49 H49            9.5084     5.9266    -1.4712 H       
  50 H50            9.9100     3.9311     4.1365 H       
  51 H51           11.2008     2.2798     2.8442 H       
  52 H52           11.2950     2.4390     0.3888 H       
  53 H53           10.0952     4.2474    -0.7746 H       
  54 H54            0.5088    -6.0730    -3.0606 H       
  55 H55            2.6031    -6.5250    -4.2742 H       
  56 H56            4.6346    -7.1528    -3.0325 H       
  57 H57            4.5702    -7.3351    -0.5777 H       
@<TRIPOS>BOND
   1    1    5 1
   2    1    2 1
   3    1   36 1
   4    1   37 1
   5    2    3 1
   6    2   38 1
   7    2   39 1
   8    3    4 1
   9    3   40 1
  10    3   41 1
  11    4    6 1
  12    4    9 2
  13    5   10 1
  14    5   11 2
  15    6    7 1
  16    7    8 2
  17    7   17 1
  18    8    9 1
  19   10   13 1
  20   11   12 1
  21   12   13 2
  22   13   14 1
  23   14   15 am
  24   14   42 1
  25   15   16 2
  26   15   21 1
  27   17   18 am
  28   17   43 1
  29   18   19 1
  30   18   20 2
  31   19   22 1
  32   19   27 1
  33   19   44 1
  34   21   23 1
  35   21   26 1
  36   21   45 1
  37   22   24 ar
  38   22   31 ar
  39   23   32 ar
  40   23   25 ar
  41   24   28 ar
  42   24   46 1
  43   25   35 ar
  44   25   47 1
  45   26   48 1
  46   27   49 1
  47   28   29 ar
  48   28   50 1
  49   29   30 ar
  50   29   51 1
  51   30   31 ar
  52   30   52 1
  53   31   53 1
  54   32   33 ar
  55   32   54 1
  56   33   34 ar
  57   33   55 1
  58   34   35 ar
  59   34   56 1
  60   35   57 1

#	End of record

