#	Name: ASD03082149
#	Creating user name:	WinNT
#	Creation time:	15. 06. 2019 20:27

#	Modifying user name:	WinNT
#	Modification time:	15. 06. 2019 20:27

#	Program:	/corina/corina34_cracker 3.40 0067  02.08.2006

@<TRIPOS>MOLECULE
ASD03082149
  52   54    0    0    0
SMALL
NO_CHARGES


@<TRIPOS>ATOM
   1 C1             2.2529     1.3581    -0.0131 C.ar    
   2 C2             2.4239     0.1085     0.5686 C.ar    
   3 C3             3.5907    -0.6014     0.3551 C.ar    
   4 C4             4.4205     1.1767    -1.0318 C.ar    
   5 C5             3.2527     1.8926    -0.8144 C.ar    
   6 C6             4.5909    -0.0702    -0.4380 C.ar    
   7 F7             5.7300    -0.7665    -0.6447 F       
   8 C8             3.7731    -1.9567     0.9883 C.3     
   9 F9             2.6367    -2.2776     1.7385 F       
  10 F10            3.9583    -2.9175    -0.0116 F       
  11 F11            4.8934    -1.9333     1.8257 F       
  12 N12            1.0716     2.0750     0.2035 N.pl3   
  13 C13            1.0973     3.4707     0.2316 C.2     
  14 N14            0.0280     4.2630     0.3174 N.2     
  15 C15            0.4085     5.5247     0.3204 C.2     
  16 N16            1.7571     5.5531     0.2344 N.pl3   
  17 N17            2.1788     4.2146     0.1836 N.2     
  18 C18           -0.4837     6.7030     0.4027 C.ar    
  19 C19           -1.8450     6.5971     0.0911 C.ar    
  20 C20            2.6099     6.7439     0.2051 C.3     
  21 C21            3.0281     7.0970     1.6092 C.2     
  22 N22            3.8213     8.1645     1.8277 N.am    
  23 C23            0.0085     7.9481     0.7987 C.ar    
  24 C24           -0.8645     9.0266     0.8619 C.ar    
  25 N25           -2.1441     8.8803     0.5527 N.ar    
  26 C26           -2.6437     7.7170     0.1797 C.ar    
  27 O27            2.6509     6.4206     2.5425 O.2     
  28 C28            4.2278     8.5077     3.1927 C.3     
  29 N29            5.4296     1.7115    -1.8386 N.pl3   
  30 C30            5.2088     2.9748    -2.5468 C.3     
  31 N31           -0.3901    10.2733     1.2544 N.pl3   
  32 C32            0.9949    10.4202     1.7088 C.3     
  33 H33            1.6445    -0.3088     1.1889 H       
  34 H34            3.1180     2.8605    -1.2741 H       
  35 H35            0.2346     1.6025     0.3341 H       
  36 H36           -2.2637     5.6498    -0.2152 H       
  37 H37            3.4953     6.5419    -0.3978 H       
  38 H38            2.0567     7.5764    -0.2295 H       
  39 H39            4.1230     8.7055     1.0813 H       
  40 H40            1.0511     8.0706     1.0521 H       
  41 H41           -3.6932     7.6424    -0.0639 H       
  42 H42            4.8624     9.3937     3.1709 H       
  43 H43            3.3424     8.7097     3.7956 H       
  44 H44            4.7811     7.6752     3.6273 H       
  45 H45            6.2759     1.2461    -1.9293 H       
  46 H46            4.3082     2.8972    -3.1559 H       
  47 H47            5.0897     3.7811    -1.8231 H       
  48 H48            6.0643     3.1859    -3.1885 H       
  49 H49           -0.9762    11.0458     1.2273 H       
  50 H50            1.1847     9.7246     2.5262 H       
  51 H51            1.6730    10.2044     0.8831 H       
  52 H52            1.1573    11.4408     2.0551 H       
@<TRIPOS>BOND
   1    1    2 ar
   2    1   12 1
   3    1    5 ar
   4    2    3 ar
   5    2   33 1
   6    3    6 ar
   7    3    8 1
   8    4    5 ar
   9    4   29 1
  10    4    6 ar
  11    5   34 1
  12    6    7 1
  13    8    9 1
  14    8   10 1
  15    8   11 1
  16   12   13 1
  17   12   35 1
  18   13   14 1
  19   13   17 2
  20   14   15 2
  21   15   16 1
  22   15   18 1
  23   16   17 1
  24   16   20 1
  25   18   19 ar
  26   18   23 ar
  27   19   26 ar
  28   19   36 1
  29   20   21 1
  30   20   37 1
  31   20   38 1
  32   21   22 am
  33   21   27 2
  34   22   28 1
  35   22   39 1
  36   23   24 ar
  37   23   40 1
  38   24   25 ar
  39   24   31 1
  40   25   26 ar
  41   26   41 1
  42   28   42 1
  43   28   43 1
  44   28   44 1
  45   29   30 1
  46   29   45 1
  47   30   46 1
  48   30   47 1
  49   30   48 1
  50   31   32 1
  51   31   49 1
  52   32   50 1
  53   32   51 1
  54   32   52 1

#	End of record

