#	Name: ASD01901599
#	Creating user name:	WinNT
#	Creation time:	15. 06. 2019 19:54

#	Modifying user name:	WinNT
#	Modification time:	15. 06. 2019 19:54

#	Program:	/corina/corina34_cracker 3.40 0067  02.08.2006

@<TRIPOS>MOLECULE
ASD01901599
  46   50    0    0    0
SMALL
NO_CHARGES


@<TRIPOS>ATOM
   1 O1            -0.0155    -0.3105    -1.2391 O.2     
   2 C2             0.0419     0.8999    -1.1461 C.2     
   3 N3             1.2108     1.5372    -1.3558 N.am    
   4 C4             2.4122     0.7709    -1.6958 C.3     
   5 C5             3.4545     1.6785    -2.3933 C.3     
   6 C6             4.3972     2.0508    -1.2207 C.3     
   7 O7             4.4534     0.8400    -0.4362 O.3     
   8 C8             3.1253     0.2904    -0.4170 C.3     
   9 C9            -1.1729     1.6745    -0.8087 C.ar    
  10 N10           -1.0935     2.9783    -0.6050 N.ar    
  11 C11           -2.1447     3.7186    -0.3018 C.ar    
  12 C12           -3.3953     3.1837    -0.1770 C.ar    
  13 C13           -3.5656     1.8019    -0.3781 C.ar    
  14 C14           -4.8168     1.1820    -0.2674 C.ar    
  15 C15           -4.9176    -0.1781    -0.4768 C.ar    
  16 N16           -6.1596    -0.8030    -0.3686 N.pl3   
  17 C17           -6.2373    -2.1385     0.0387 C.2     
  18 N18           -5.2405    -2.8793     0.4448 N.2     
  19 N19           -5.6972    -4.1608     0.7694 N.pl3   
  20 H20           -5.1452    -4.8890     1.0948 H       
  21 C21           -7.0488    -4.2232     0.5549 C.ar    
  22 C22           -8.0068    -5.2254     0.7042 C.ar    
  23 C23           -9.3171    -4.9296     0.3835 C.ar    
  24 C24           -9.6424    -3.6590    -0.0731 C.ar    
  25 N25           -8.7275    -2.7261    -0.2085 N.ar    
  26 C26           -7.4516    -2.9558     0.0926 C.ar    
  27 C27           -3.7850    -0.9375    -0.7975 C.ar    
  28 C28           -2.5601    -0.3558    -0.9096 C.ar    
  29 C29           -2.4237     1.0245    -0.7085 C.ar    
  30 H30            1.2566     2.5033    -1.2816 H       
  31 H31            2.1557    -0.0769    -2.3311 H       
  32 H32            3.9928     1.1299    -3.1661 H       
  33 H33            2.9801     2.5678    -2.8084 H       
  34 H34            5.3875     2.3133    -1.5929 H       
  35 H35            3.9770     2.8685    -0.6351 H       
  36 H36            2.5893     0.6470     0.4625 H       
  37 H37            3.1749    -0.7984    -0.4072 H       
  38 H38           -2.0112     4.7792    -0.1475 H       
  39 H39           -4.2386     3.8107     0.0722 H       
  40 H40           -5.6935     1.7624    -0.0205 H       
  41 H41           -6.9697    -0.3113    -0.5758 H       
  42 H42           -7.7314    -6.2069     1.0607 H       
  43 H43          -10.0846    -5.6823     0.4870 H       
  44 H44          -10.6687    -3.4333    -0.3224 H       
  45 H45           -3.8855    -2.0008    -0.9578 H       
  46 H46           -1.6964    -0.9552    -1.1568 H       
@<TRIPOS>BOND
   1    1    2 2
   2    2    3 am
   3    2    9 1
   4    3    4 1
   5    3   30 1
   6    4    8 1
   7    4    5 1
   8    4   31 1
   9    5    6 1
  10    5   32 1
  11    5   33 1
  12    6    7 1
  13    6   34 1
  14    6   35 1
  15    7    8 1
  16    8   36 1
  17    8   37 1
  18    9   29 ar
  19    9   10 ar
  20   10   11 ar
  21   11   12 ar
  22   11   38 1
  23   12   13 ar
  24   12   39 1
  25   13   29 ar
  26   13   14 ar
  27   14   15 ar
  28   14   40 1
  29   15   16 1
  30   15   27 ar
  31   16   17 1
  32   16   41 1
  33   17   26 1
  34   17   18 2
  35   18   19 1
  36   19   20 1
  37   19   21 1
  38   21   26 ar
  39   21   22 ar
  40   22   23 ar
  41   22   42 1
  42   23   24 ar
  43   23   43 1
  44   24   25 ar
  45   24   44 1
  46   25   26 ar
  47   27   28 ar
  48   27   45 1
  49   28   29 ar
  50   28   46 1

#	End of record

