#	Name: ASD01410030
#	Creating user name:	WinNT
#	Creation time:	15. 06. 2019 19:16

#	Modifying user name:	WinNT
#	Modification time:	15. 06. 2019 19:16

#	Program:	/corina/corina34_cracker 3.40 0067  02.08.2006

@<TRIPOS>MOLECULE
ASD01410030
  36   37    0    0    0
SMALL
NO_CHARGES


@<TRIPOS>ATOM
   1 C1            -0.0269     1.4067    -0.0669 C.ar    
   2 C2            -0.0039     0.0235    -0.0690 C.ar    
   3 C3            -1.1881    -0.6880    -0.0487 C.ar    
   4 C4            -2.4005    -0.0145    -0.0261 C.ar    
   5 C5            -2.4214     1.3728    -0.0240 C.ar    
   6 C6            -1.2353     2.0805    -0.0386 C.ar    
   7 O7            -3.5665    -0.7127    -0.0065 O.3     
   8 C8            -4.7769     0.0465     0.0162 C.3     
   9 C9            -5.9572    -0.8903     0.0356 C.2     
  10 N10           -7.2104    -0.3950     0.0586 N.am    
  11 C11           -8.3011    -1.2556    -0.0366 C.ar    
  12 C12           -8.2236    -2.3954    -0.8251 C.ar    
  13 C13           -9.3061    -3.2472    -0.9181 C.ar    
  14 C14          -10.4758    -2.9729    -0.2283 C.ar    
  15 C15          -10.5715    -1.8461     0.5595 C.ar    
  16 C16           -9.4824    -0.9778     0.6687 C.ar    
  17 C17           -9.5776     0.2288     1.5097 C.2     
  18 O18          -10.7490     0.5543     2.0909 O.3     
  19 O19           -8.5998     0.9300     1.6790 O.2     
  20 O20           -5.7793    -2.0900     0.0306 O.2     
  21 Cl21           1.4624     2.2984    -0.0924 Cl      
  22 C22           -1.1626    -2.1948    -0.0515 C.3     
  23 H23            0.9402    -0.5006    -0.0869 H       
  24 H24           -3.3644     1.8989    -0.0068 H       
  25 H25           -1.2512     3.1603    -0.0366 H       
  26 H26           -4.7959     0.6735     0.9076 H       
  27 H27           -4.8275     0.6763    -0.8721 H       
  28 H28           -7.3526     0.5609     0.1415 H       
  29 H29           -7.3156    -2.6159    -1.3666 H       
  30 H30           -9.2408    -4.1327    -1.5329 H       
  31 H31          -11.3171    -3.6454    -0.3085 H       
  32 H32          -11.4857    -1.6368     1.0949 H       
  33 H33          -10.7624     1.3547     2.6334 H       
  34 H34           -1.1379    -2.5597     0.9753 H       
  35 H35           -2.0555    -2.5723    -0.5498 H       
  36 H36           -0.2761    -2.5421    -0.5820 H       
@<TRIPOS>BOND
   1    1    2 ar
   2    1   21 1
   3    1    6 ar
   4    2    3 ar
   5    2   23 1
   6    3    4 ar
   7    3   22 1
   8    4    5 ar
   9    4    7 1
  10    5    6 ar
  11    5   24 1
  12    6   25 1
  13    7    8 1
  14    8    9 1
  15    8   26 1
  16    8   27 1
  17    9   10 am
  18    9   20 2
  19   10   11 1
  20   10   28 1
  21   11   12 ar
  22   11   16 ar
  23   12   13 ar
  24   12   29 1
  25   13   14 ar
  26   13   30 1
  27   14   15 ar
  28   14   31 1
  29   15   16 ar
  30   15   32 1
  31   16   17 1
  32   17   18 1
  33   17   19 2
  34   18   33 1
  35   22   34 1
  36   22   35 1
  37   22   36 1

#	End of record

