#	Name: ASD03081102
#	Creating user name:	WinNT
#	Creation time:	15. 06. 2019 20:26

#	Modifying user name:	WinNT
#	Modification time:	15. 06. 2019 20:26

#	Program:	/corina/corina34_cracker 3.40 0067  02.08.2006

@<TRIPOS>MOLECULE
ASD03081102
  16   16    0    0    0
SMALL
NO_CHARGES


@<TRIPOS>ATOM
   1 C1            -0.0158     1.3143     0.0093 C.ar    
   2 N2             0.0021    -0.0041     0.0020 N.ar    
   3 C3             1.1446    -0.6684    -0.0124 C.ar    
   4 C4             2.3447     0.0494    -0.0200 C.ar    
   5 C5             2.2777     1.4462    -0.0119 C.ar    
   6 N6             1.0918     2.0295     0.0025 N.ar    
   7 C7             3.6495    -0.6498    -0.0357 C.2     
   8 N8             3.6907    -1.9498    -0.0427 N.2     
   9 N9             4.8260     0.0802    -0.0430 N.pl3   
  10 O10            4.9387    -2.6185    -0.0577 O.3     
  11 H11           -0.9677     1.8244     0.0165 H       
  12 H12            1.1512    -1.7484    -0.0179 H       
  13 H13            3.1806     2.0388    -0.0169 H       
  14 H14            4.7953     1.0497    -0.0378 H       
  15 H15            5.6810    -0.3780    -0.0533 H       
  16 H16            4.8681    -3.5830    -0.0619 H       
@<TRIPOS>BOND
   1    1    2 ar
   2    1    6 ar
   3    1   11 1
   4    2    3 ar
   5    3    4 ar
   6    3   12 1
   7    4    5 ar
   8    4    7 1
   9    5    6 ar
  10    5   13 1
  11    7    8 2
  12    7    9 1
  13    8   10 1
  14    9   14 1
  15    9   15 1
  16   10   16 1

#	End of record

