#	Name: ASD02780002
#	Creating user name:	WinNT
#	Creation time:	15. 06. 2019 20:26

#	Modifying user name:	WinNT
#	Modification time:	15. 06. 2019 20:26

#	Program:	/corina/corina34_cracker 3.40 0067  02.08.2006

@<TRIPOS>MOLECULE
ASD02780002
  22   21    0    0    0
SMALL
NO_CHARGES


@<TRIPOS>ATOM
   1 C1            -0.0184     1.5028     0.0103 C.2     
   2 N2             1.3055    -0.4734    -0.4867 N.3     
   3 C3             0.0021    -0.0041     0.0020 C.3     
   4 C4            -0.2279    -0.5251     1.4221 C.3     
   5 C5            -0.2071    -2.0549     1.4137 C.3     
   6 C6            -0.3122    -2.5743     2.8490 C.3     
   7 C7            -1.5854    -0.0362     1.9311 C.3     
   8 O8             1.0197     2.1211     0.0037 O.2     
   9 O9            -1.1898     2.1580     0.0194 O.3     
  10 H10            1.4531    -0.1967    -1.4457 H       
  11 H11            2.0536    -0.1430     0.1043 H       
  12 H12           -0.7864    -0.3745    -0.6531 H       
  13 H13            0.5606    -0.1546     2.0772 H       
  14 H14           -1.0495    -2.4265     0.8302 H       
  15 H15            0.7249    -2.4032     0.9686 H       
  16 H16            0.5302    -2.2027     3.4324 H       
  17 H17           -1.2442    -2.2260     3.2941 H       
  18 H18           -0.2974    -3.6641     2.8430 H       
  19 H19           -1.7493    -0.4074     2.9427 H       
  20 H20           -1.6002     1.0537     1.9371 H       
  21 H21           -2.3739    -0.4067     1.2760 H       
  22 H22           -1.1523     3.1243     0.0245 H       
@<TRIPOS>BOND
   1    1    3 1
   2    1    8 2
   3    1    9 1
   4    2    3 1
   5    2   10 1
   6    2   11 1
   7    3    4 1
   8    3   12 1
   9    4    5 1
  10    4    7 1
  11    4   13 1
  12    5    6 1
  13    5   14 1
  14    5   15 1
  15    6   16 1
  16    6   17 1
  17    6   18 1
  18    7   19 1
  19    7   20 1
  20    7   21 1
  21    9   22 1

#	End of record

