#	Name: ASD02508471
#	Creating user name:	WinNT
#	Creation time:	15. 06. 2019 20:24

#	Modifying user name:	WinNT
#	Modification time:	15. 06. 2019 20:24

#	Program:	/corina/corina34_cracker 3.40 0067  02.08.2006

@<TRIPOS>MOLECULE
ASD02508471
  36   38    0    0    0
SMALL
NO_CHARGES


@<TRIPOS>ATOM
   1 C1             1.1047     1.7983    -0.0184 C.2     
   2 C2             2.0784     0.7874     0.1169 C.2     
   3 C3             1.4507    -0.3989    -0.0056 C.2     
   4 N4             0.1208    -0.1587    -0.2123 N.pl3   
   5 C5            -0.0828     1.1931    -0.2187 C.2     
   6 C6            -0.8639    -1.1308    -0.3878 C.ar    
   7 N7            -0.5345    -2.4137    -0.4905 N.ar    
   8 C8            -2.2092    -0.7716    -0.4523 C.ar    
   9 C9            -3.1486    -1.7712    -0.6267 C.ar    
  10 N10           -2.7434    -3.0283    -0.7262 N.ar    
  11 C11           -1.4623    -3.3360    -0.6561 C.ar    
  12 S12            2.2125    -1.9852     0.0844 S.o2    
  13 N13            2.3168    -2.5674    -1.4624 N.am    
  14 C14            3.0541    -1.8695    -2.4238 C.ar    
  15 C15            4.3525    -1.4641    -2.1449 C.ar    
  16 C16            5.0793    -0.7751    -3.0965 C.ar    
  17 C17            4.5138    -0.4884    -4.3272 C.ar    
  18 C18            3.2190    -0.8918    -4.6075 C.ar    
  19 C19            2.4908    -1.5858    -3.6613 C.ar    
  20 O20            3.5467    -1.7654     0.5213 O.2     
  21 O21            1.2993    -2.8305     0.7706 O.2     
  22 Cl22          -0.9846    -4.9993    -0.7930 Cl      
  23 F23            5.2261     0.1863    -5.2560 F       
  24 C24            2.6062    -0.5782    -5.9481 C.3     
  25 H25            1.2780     2.8630     0.0336 H       
  26 H26            3.1344     0.9365     0.2875 H       
  27 H27           -1.0312     1.6901    -0.3593 H       
  28 H28           -2.5105     0.2621    -0.3677 H       
  29 H29           -4.1999    -1.5299    -0.6809 H       
  30 H30            1.8664    -3.3926    -1.7014 H       
  31 H31            4.7938    -1.6869    -1.1847 H       
  32 H32            6.0892    -0.4596    -2.8800 H       
  33 H33            1.4810    -1.9002    -3.8803 H       
  34 H34            2.8158    -1.3917    -6.6426 H       
  35 H35            1.5279    -0.4641    -5.8369 H       
  36 H36            3.0316     0.3481    -6.3343 H       
@<TRIPOS>BOND
   1    1    2 1
   2    1    5 2
   3    1   25 1
   4    2    3 2
   5    2   26 1
   6    3    4 1
   7    3   12 1
   8    4    5 1
   9    4    6 1
  10    5   27 1
  11    6    7 ar
  12    6    8 ar
  13    7   11 ar
  14    8    9 ar
  15    8   28 1
  16    9   10 ar
  17    9   29 1
  18   10   11 ar
  19   11   22 1
  20   12   13 am
  21   12   20 2
  22   12   21 2
  23   13   14 1
  24   13   30 1
  25   14   15 ar
  26   14   19 ar
  27   15   16 ar
  28   15   31 1
  29   16   17 ar
  30   16   32 1
  31   17   18 ar
  32   17   23 1
  33   18   19 ar
  34   18   24 1
  35   19   33 1
  36   24   34 1
  37   24   35 1
  38   24   36 1

#	End of record

