#	Name: ASD03520008
#	Creating user name:	WinNT
#	Creation time:	15. 06. 2019 20:42

#	Modifying user name:	WinNT
#	Modification time:	15. 06. 2019 20:42

#	Program:	/corina/corina34_cracker 3.40 0067  02.08.2006

@<TRIPOS>MOLECULE
ASD03520008
  62   66    0    0    0
SMALL
NO_CHARGES


@<TRIPOS>ATOM
   1 C1            -0.4375     2.7279     0.1331 C.3     
   2 C2            -0.4012     1.2472     0.4986 C.3     
   3 C3             0.2906     0.4108    -0.5891 C.3     
   4 C4            -0.4522     0.6536    -1.8908 C.3     
   5 C5            -0.2708     2.1522    -2.2508 C.3     
   6 C6            -1.0753     2.9555    -1.2465 C.3     
   7 C7             0.3532     1.0693     1.8198 C.3     
   8 C8             0.4504    -0.3928     2.1416 C.2     
   9 C9             0.9995    -1.3206     1.0741 C.3     
  10 C10            0.2188    -1.0724    -0.2202 C.3     
  11 C11           -0.2768     1.8825     2.8982 C.2     
  12 C12           -0.6704     1.3922     4.0629 C.2     
  13 C13           -0.5005    -0.0422     4.3500 C.2     
  14 C14            0.0686    -0.9048     3.3031 C.2     
  15 C15            0.1326    -0.0360    -3.1280 C.3     
  16 C16           -0.4142     0.8218    -4.3015 C.3     
  17 C17           -0.7299     2.2241    -3.7016 C.3     
  18 C18           -0.0339     3.3283    -4.4549 C.2     
  19 O19           -2.1649     2.3322    -3.7645 O.3     
  20 O20            0.9691     3.0910    -5.0840 O.2     
  21 C21           -0.5897     4.7287    -4.4230 C.3     
  22 O22            0.1675     5.5619    -5.3029 O.3     
  23 C23            1.2078     2.5332    -2.1534 C.3     
  24 O24            0.8974     3.2377     0.1196 O.3     
  25 C25            1.7739     1.6018     1.6223 C.3     
  26 F26           -1.7106     0.7785     0.6499 F       
  27 O27           -0.8232    -0.5034     5.4289 O.2     
  28 O28           -1.7013     0.2905    -4.6780 O.3     
  29 C29           -2.5502     1.4463    -4.8375 C.3     
  30 C30           -4.0218     1.0505    -4.7002 C.3     
  31 C31           -2.2992     2.1097    -6.1932 C.3     
  32 H32           -1.0158     3.2657     0.8844 H       
  33 H33            1.3282     0.7280    -0.6929 H       
  34 H34           -1.5094     0.4151    -1.7740 H       
  35 H35           -2.1094     2.6110    -1.2387 H       
  36 H36           -1.0378     4.0143    -1.5027 H       
  37 H37            2.0567    -1.1106     0.9123 H       
  38 H38            0.8732    -2.3571     1.3870 H       
  39 H39           -0.8226    -1.3604    -0.0766 H       
  40 H40            0.6514    -1.6675    -1.0245 H       
  41 H41           -0.4208     2.9376     2.7182 H       
  42 H42           -1.1150     2.0429     4.8014 H       
  43 H43            0.1761    -1.9644     3.4823 H       
  44 H44            1.2220    -0.0079    -3.1056 H       
  45 H45           -0.2258    -1.0627    -3.2020 H       
  46 H46            0.2834     0.8738    -5.1373 H       
  47 H47           -1.6314     4.7136    -4.7437 H       
  48 H48           -0.5277     5.1212    -3.4080 H       
  49 H49           -0.1351     6.4799    -5.3330 H       
  50 H50            1.7553     2.0788    -2.9792 H       
  51 H51            1.3077     3.6174    -2.2042 H       
  52 H52            1.6138     2.1748    -1.2075 H       
  53 H53            0.9577     4.1763    -0.1051 H       
  54 H54            1.7661     2.6899     1.6852 H       
  55 H55            2.4245     1.1977     2.3979 H       
  56 H56            2.1432     1.2971     0.6431 H       
  57 H57           -4.6436     1.9450    -4.7378 H       
  58 H58           -4.2961     0.3827    -5.5168 H       
  59 H59           -4.1739     0.5420    -3.7482 H       
  60 H60           -1.2272     2.2409    -6.3405 H       
  61 H61           -2.7003     1.4787    -6.9863 H       
  62 H62           -2.7911     3.0820    -6.2186 H       
@<TRIPOS>BOND
   1    1    2 1
   2    1   24 1
   3    1    6 1
   4    1   32 1
   5    2    7 1
   6    2   26 1
   7    2    3 1
   8    3    4 1
   9    3   10 1
  10    3   33 1
  11    4    5 1
  12    4   15 1
  13    4   34 1
  14    5    6 1
  15    5   17 1
  16    5   23 1
  17    6   35 1
  18    6   36 1
  19    7    8 1
  20    7   11 1
  21    7   25 1
  22    8    9 1
  23    8   14 2
  24    9   10 1
  25    9   37 1
  26    9   38 1
  27   10   39 1
  28   10   40 1
  29   11   12 2
  30   11   41 1
  31   12   13 1
  32   12   42 1
  33   13   14 1
  34   13   27 2
  35   14   43 1
  36   15   16 1
  37   15   44 1
  38   15   45 1
  39   16   17 1
  40   16   28 1
  41   16   46 1
  42   17   18 1
  43   17   19 1
  44   18   20 2
  45   18   21 1
  46   19   29 1
  47   21   22 1
  48   21   47 1
  49   21   48 1
  50   22   49 1
  51   23   50 1
  52   23   51 1
  53   23   52 1
  54   24   53 1
  55   25   54 1
  56   25   55 1
  57   25   56 1
  58   28   29 1
  59   29   30 1
  60   29   31 1
  61   30   57 1
  62   30   58 1
  63   30   59 1
  64   31   60 1
  65   31   61 1
  66   31   62 1

#	End of record

