#	Name: ASD01913484
#	Creating user name:	WinNT
#	Creation time:	15. 06. 2019 20:01

#	Modifying user name:	WinNT
#	Modification time:	15. 06. 2019 20:01

#	Program:	/corina/corina34_cracker 3.40 0067  02.08.2006

@<TRIPOS>MOLECULE
ASD01913484
  33   35    0    0    0
SMALL
NO_CHARGES


@<TRIPOS>ATOM
   1 C1            -0.7803     1.3579    -0.9854 C.ar    
   2 C2            -0.8022    -0.0331    -0.9867 C.ar    
   3 C3            -0.3485    -0.6985    -2.1211 C.ar    
   4 N4             0.0844     0.0101    -3.1508 N.ar    
   5 C5             0.0895     1.3274    -3.1112 C.ar    
   6 N6            -0.3321     1.9938    -2.0552 N.ar    
   7 C7            -1.2368    -2.0818     0.0341 C.ar    
   8 C8            -0.0426    -2.7756     0.1699 C.ar    
   9 N9            -0.0167    -4.0928     0.1195 N.ar    
  10 C10           -1.1118    -4.8036    -0.0599 C.ar    
  11 C11           -2.3468    -4.1832    -0.2038 C.ar    
  12 C12           -2.4154    -2.7941    -0.1567 C.ar    
  13 N13           -3.5046    -4.9442    -0.3943 N.am    
  14 C14           -4.6705    -4.5455     0.1518 C.2     
  15 O15           -1.2547    -0.7242     0.0925 O.3     
  16 C16           -5.8699    -5.4085     0.0490 C.ar    
  17 C17           -7.0715    -4.9907     0.6154 C.ar    
  18 C18           -8.1863    -5.8086     0.5111 C.ar    
  19 C19           -8.0604    -7.0161    -0.1561 C.ar    
  20 N20           -5.7915    -6.5714    -0.5871 N.ar    
  21 O21           -4.7377    -3.4778     0.7285 O.2     
  22 C22           -6.8321    -7.3695    -0.6966 C.ar    
  23 Cl23          -6.6678    -8.8813    -1.5339 Cl      
  24 H24           -1.1283     1.9105    -0.1253 H       
  25 H25           -0.3495    -1.7778    -2.1604 H       
  26 H26            0.4497     1.8765    -3.9685 H       
  27 H27            0.8773    -2.2297     0.3185 H       
  28 H28           -1.0486    -5.8812    -0.0957 H       
  29 H29           -3.3603    -2.2824    -0.2650 H       
  30 H30           -3.4685    -5.7590    -0.9194 H       
  31 H31           -7.1342    -4.0428     1.1291 H       
  32 H32           -9.1315    -5.5112     0.9407 H       
  33 H33           -8.9097    -7.6760    -0.2544 H       
@<TRIPOS>BOND
   1    1    2 ar
   2    1    6 ar
   3    1   24 1
   4    2    3 ar
   5    2   15 1
   6    3    4 ar
   7    3   25 1
   8    4    5 ar
   9    5    6 ar
  10    5   26 1
  11    7    8 ar
  12    7   12 ar
  13    7   15 1
  14    8    9 ar
  15    8   27 1
  16    9   10 ar
  17   10   11 ar
  18   10   28 1
  19   11   12 ar
  20   11   13 1
  21   12   29 1
  22   13   14 am
  23   13   30 1
  24   14   16 1
  25   14   21 2
  26   16   17 ar
  27   16   20 ar
  28   17   18 ar
  29   17   31 1
  30   18   19 ar
  31   18   32 1
  32   19   22 ar
  33   19   33 1
  34   20   22 ar
  35   22   23 1

#	End of record

