#	Name: ASD01914222
#	Creating user name:	WinNT
#	Creation time:	15. 06. 2019 20:03

#	Modifying user name:	WinNT
#	Modification time:	15. 06. 2019 20:03

#	Program:	/corina/corina34_cracker 3.40 0067  02.08.2006

@<TRIPOS>MOLECULE
ASD01914222
  33   34    0    0    0
SMALL
NO_CHARGES


@<TRIPOS>ATOM
   1 C1            -0.0187     1.5021     0.0184 C.2     
   2 C2             0.0011    -0.0045    -0.0114 C.3     
   3 C3             1.4501    -0.4956    -0.0132 C.3     
   4 C4             1.4694    -1.9671    -0.0424 C.1     
   5 C5             1.4848    -3.1408    -0.0656 C.1     
   6 O6             1.0237     2.1221     0.0365 O.2     
   7 N7            -1.1946     2.1607     0.0195 N.am    
   8 C8             1.5036    -4.5724    -0.0940 C.ar    
   9 C9             2.7241    -5.2488    -0.1007 C.ar    
  10 C10            2.7255    -6.6320    -0.1282 C.ar    
  11 C11            1.5066    -7.2959    -0.1481 C.ar    
  12 C12            0.3342    -6.5630    -0.1400 C.ar    
  13 N13            0.3594    -5.2462    -0.1082 N.ar    
  14 C14           -1.2153     3.5574     0.1329 C.ar    
  15 C15           -2.3327     4.1970     0.6589 C.ar    
  16 C16           -2.3500     5.5750     0.7700 C.ar    
  17 C17           -1.2558     6.3172     0.3575 C.ar    
  18 C18           -0.1431     5.6815    -0.1662 C.ar    
  19 C19           -0.1189     4.3040    -0.2740 C.ar    
  20 F20           -1.2746     7.6637     0.4659 F       
  21 F21           -3.4002     3.4726     1.0604 F       
  22 H22           -0.5128    -0.3921     0.8682 H       
  23 H23           -0.5030    -0.3567    -0.9114 H       
  24 H24            1.9640    -0.1079    -0.8928 H       
  25 H25            1.9542    -0.1433     0.8867 H       
  26 H26           -2.0265     1.6680    -0.0583 H       
  27 H27            3.6544    -4.7004    -0.0850 H       
  28 H28            3.6543    -7.1830    -0.1344 H       
  29 H29            1.4743    -8.3752    -0.1701 H       
  30 H30           -0.6154    -7.0772    -0.1558 H       
  31 H31           -3.2170     6.0729     1.1783 H       
  32 H32            0.7088     6.2626    -0.4872 H       
  33 H33            0.7514     3.8091    -0.6789 H       
@<TRIPOS>BOND
   1    1    2 1
   2    1    6 2
   3    1    7 am
   4    2    3 1
   5    2   22 1
   6    2   23 1
   7    3    4 1
   8    3   24 1
   9    3   25 1
  10    4    5 3
  11    5    8 1
  12    7   14 1
  13    7   26 1
  14    8    9 ar
  15    8   13 ar
  16    9   10 ar
  17    9   27 1
  18   10   11 ar
  19   10   28 1
  20   11   12 ar
  21   11   29 1
  22   12   13 ar
  23   12   30 1
  24   14   15 ar
  25   14   19 ar
  26   15   16 ar
  27   15   21 1
  28   16   17 ar
  29   16   31 1
  30   17   18 ar
  31   17   20 1
  32   18   19 ar
  33   18   32 1
  34   19   33 1

#	End of record

