#	Name: ASD01918060
#	Creating user name:	WinNT
#	Creation time:	15. 06. 2019 20:10

#	Modifying user name:	WinNT
#	Modification time:	15. 06. 2019 20:10

#	Program:	/corina/corina34_cracker 3.40 0067  02.08.2006

@<TRIPOS>MOLECULE
ASD01918060
  42   46    0    0    0
SMALL
NO_CHARGES


@<TRIPOS>ATOM
   1 C1            -0.0769     1.4959    -0.1546 C.3     
   2 C2            -0.0224    -0.0066    -0.0667 C.2     
   3 C3             1.0430    -0.7530    -0.4501 C.2     
   4 C4             2.3156    -0.1864    -1.0200 C.3     
   5 C5             2.0439     1.2565    -1.4656 C.3     
   6 C6             1.3537     2.0211    -0.3323 C.3     
   7 N7             0.7094    -2.0414    -0.2142 N.pl3   
   8 N8            -0.4844    -2.0570     0.2778 N.2     
   9 N9            -0.9440    -0.8557     0.3760 N.2     
  10 C10            1.5165    -3.1625    -0.4605 C.ar    
  11 C11            1.3109     3.4890    -0.6708 C.2     
  12 N12            1.8499     4.4626     0.0199 N.2     
  13 C13            1.5581     5.5947    -0.6596 C.2     
  14 N14            0.8658     5.2453    -1.7127 N.2     
  15 O15            0.7207     4.0414    -1.7354 O.3     
  16 C16            1.9500     6.9750    -0.2812 C.ar    
  17 C17            1.5763     8.0520    -1.0827 C.ar    
  18 C18            1.9428     9.3336    -0.7272 C.ar    
  19 C19            2.6818     9.5507     0.4247 C.ar    
  20 C20            3.0558     8.4826     1.2243 C.ar    
  21 C21            2.6878     7.1984     0.8797 C.ar    
  22 F22            3.0390    10.8073     0.7690 F       
  23 C23            2.8760    -3.1339    -0.1579 C.ar    
  24 C24            3.6322    -4.2635    -0.4184 C.ar    
  25 C25            3.0169    -5.3774    -0.9674 C.ar    
  26 N26            1.7256    -5.3708    -1.2422 N.ar    
  27 C27            0.9705    -4.3162    -1.0032 C.ar    
  28 F28            3.7479    -6.4839    -1.2251 F       
  29 H29           -0.6856     1.7920    -1.0089 H       
  30 H30           -0.5061     1.9021     0.7613 H       
  31 H31            3.0950    -0.1950    -0.2581 H       
  32 H32            2.6317    -0.7821    -1.8764 H       
  33 H33            2.9873     1.7445    -1.7108 H       
  34 H34            1.3996     1.2498    -2.3448 H       
  35 H35            1.9103     1.8786     0.5939 H       
  36 H36            1.0009     7.8836    -1.9810 H       
  37 H37            1.6536    10.1689    -1.3478 H       
  38 H38            3.6324     8.6561     2.1208 H       
  39 H39            2.9757     6.3669     1.5060 H       
  40 H40            3.3290    -2.2515     0.2692 H       
  41 H41            4.6891    -4.2767    -0.1968 H       
  42 H42           -0.0834    -4.3497    -1.2367 H       
@<TRIPOS>BOND
   1    1    2 1
   2    1    6 1
   3    1   29 1
   4    1   30 1
   5    2    9 1
   6    2    3 2
   7    3    4 1
   8    3    7 1
   9    4    5 1
  10    4   31 1
  11    4   32 1
  12    5    6 1
  13    5   33 1
  14    5   34 1
  15    6   11 1
  16    6   35 1
  17    7    8 1
  18    7   10 1
  19    8    9 2
  20   10   23 ar
  21   10   27 ar
  22   11   12 2
  23   11   15 1
  24   12   13 1
  25   13   14 2
  26   13   16 1
  27   14   15 1
  28   16   17 ar
  29   16   21 ar
  30   17   18 ar
  31   17   36 1
  32   18   19 ar
  33   18   37 1
  34   19   20 ar
  35   19   22 1
  36   20   21 ar
  37   20   38 1
  38   21   39 1
  39   23   24 ar
  40   23   40 1
  41   24   25 ar
  42   24   41 1
  43   25   26 ar
  44   25   28 1
  45   26   27 ar
  46   27   42 1

#	End of record

