#	Name: ASD04910414
#	Creating user name:	WinNT
#	Creation time:	15. 06. 2019 20:55

#	Modifying user name:	WinNT
#	Modification time:	15. 06. 2019 20:55

#	Program:	/corina/corina34_cracker 3.40 0067  02.08.2006

@<TRIPOS>MOLECULE
ASD04910414
  59   62    0    0    0
SMALL
NO_CHARGES


@<TRIPOS>ATOM
   1 C1             0.5931     1.6262     0.9610 C.2     
   2 C2             0.5039     0.1261     0.8486 C.3     
   3 C3             1.9043    -0.4540     0.6409 C.3     
   4 O4             1.6666     2.1751     0.8830 O.2     
   5 O5            -0.5207     2.3531     1.1423 O.3     
   6 C6             2.9353    -2.6417     0.3440 C.2     
   7 C7             2.8478    -4.1134     0.2338 C.ar    
   8 C8             4.0034    -4.8717     0.0395 C.ar    
   9 C9             3.9148    -6.2447    -0.0621 C.ar    
  10 C10            2.6839    -6.8701     0.0277 C.ar    
  11 C11            1.5346    -6.1243     0.2203 C.ar    
  12 C12            1.6099    -4.7511     0.3293 C.ar    
  13 O13            4.0153    -2.0895     0.2655 O.2     
  14 N14            1.8176    -1.9123     0.5316 N.am    
  15 C15            2.5946    -8.3702    -0.0851 C.3     
  16 C16            2.4773    -8.9808     1.3129 C.3     
  17 N17            1.4156    -8.7311    -0.8762 N.pl3   
  18 C18            2.6803    -8.4572    -2.9195 C.ar    
  19 C19            1.4787    -8.7141    -2.2730 C.ar    
  20 C20            0.3367    -8.9554    -3.0341 C.ar    
  21 C21            0.4466    -8.9289    -4.4132 C.ar    
  22 C22            1.6826    -8.6648    -4.9893 C.ar    
  23 N23            2.7468    -8.4401    -4.2360 N.ar    
  24 N24            1.8038    -8.6360    -6.3834 N.pl3   
  25 N25            0.7723    -8.8528    -7.3062 N.2     
  26 C26            1.2707    -8.7438    -8.5111 C.2     
  27 C27            2.6350    -8.4542    -8.3992 C.2     
  28 C28            2.9409    -8.3870    -7.0828 C.2     
  29 C29            3.5939    -8.2480    -9.5434 C.3     
  30 F30            2.9106    -8.3900   -10.7558 F       
  31 F31            4.1436    -6.9639    -9.4655 F       
  32 F32            4.6177    -9.1987    -9.4709 F       
  33 C33            2.5180   -10.5066     1.2080 C.3     
  34 C34            2.5223   -11.3045     2.5135 C.3     
  35 C35            1.2683   -11.2778     1.6373 C.3     
  36 H36            0.0736    -0.2819     1.7633 H       
  37 H37           -0.1282    -0.1378     0.0006 H       
  38 H38            2.3345    -0.0460    -0.2738 H       
  39 H39            2.5363    -0.1901     1.4888 H       
  40 H40           -0.4133     3.3118     1.2086 H       
  41 H41            4.9647    -4.3847    -0.0315 H       
  42 H42            4.8082    -6.8326    -0.2124 H       
  43 H43            0.5768    -6.6186     0.2895 H       
  44 H44            0.7125    -4.1704     0.4840 H       
  45 H45            0.9557    -2.3530     0.5943 H       
  46 H46            3.4910    -8.7518    -0.5742 H       
  47 H47            3.3070    -8.6367     1.9304 H       
  48 H48            1.5350    -8.6727     1.7660 H       
  49 H49            0.5910    -8.9818    -0.4310 H       
  50 H50            3.5694    -8.2647    -2.3373 H       
  51 H51           -0.6116    -9.1585    -2.5589 H       
  52 H52           -0.4180    -9.1118    -5.0341 H       
  53 H53            0.7225    -8.8580    -9.4346 H       
  54 H54            3.9138    -8.1760    -6.6641 H       
  55 H55            3.0936   -10.9053     0.3727 H       
  56 H56            3.1003   -12.2283     2.5368 H       
  57 H57            2.4960   -10.7424     3.4470 H       
  58 H58            0.4171   -10.6981     1.9944 H       
  59 H59            1.0213   -12.1840     1.0842 H       
@<TRIPOS>BOND
   1    1    2 1
   2    1    4 2
   3    1    5 1
   4    2    3 1
   5    2   36 1
   6    2   37 1
   7    3   14 1
   8    3   38 1
   9    3   39 1
  10    5   40 1
  11    6    7 1
  12    6   13 2
  13    6   14 am
  14    7    8 ar
  15    7   12 ar
  16    8    9 ar
  17    8   41 1
  18    9   10 ar
  19    9   42 1
  20   10   11 ar
  21   10   15 1
  22   11   12 ar
  23   11   43 1
  24   12   44 1
  25   14   45 1
  26   15   16 1
  27   15   17 1
  28   15   46 1
  29   16   33 1
  30   16   47 1
  31   16   48 1
  32   17   19 1
  33   17   49 1
  34   18   19 ar
  35   18   23 ar
  36   18   50 1
  37   19   20 ar
  38   20   21 ar
  39   20   51 1
  40   21   22 ar
  41   21   52 1
  42   22   23 ar
  43   22   24 1
  44   24   25 1
  45   24   28 1
  46   25   26 2
  47   26   27 1
  48   26   53 1
  49   27   28 2
  50   27   29 1
  51   28   54 1
  52   29   30 1
  53   29   31 1
  54   29   32 1
  55   33   34 1
  56   33   35 1
  57   33   55 1
  58   34   35 1
  59   34   56 1
  60   34   57 1
  61   35   58 1
  62   35   59 1

#	End of record

