#	Name: ASD03081091
#	Creating user name:	WinNT
#	Creation time:	15. 06. 2019 20:26

#	Modifying user name:	WinNT
#	Modification time:	15. 06. 2019 20:26

#	Program:	/corina/corina34_cracker 3.40 0067  02.08.2006

@<TRIPOS>MOLECULE
ASD03081091
  53   56    0    0    0
SMALL
NO_CHARGES


@<TRIPOS>ATOM
   1 N1            -0.0179     1.4660     0.0101 N.am    
   2 C2             0.0021    -0.0041     0.0020 C.3     
   3 C3             1.4817    -0.4423     0.0128 C.3     
   4 C4             2.2073     0.7983     0.5975 C.3     
   5 C5             1.3719     1.9577    -0.0005 C.3     
   6 C6            -1.1236     2.2365     0.0197 C.2     
   7 O7            -2.2237     1.7205     0.0223 O.2     
   8 O8            -1.0093     3.5780     0.0264 O.3     
   9 C9            -0.6759    -0.5190    -1.2415 C.ar    
  10 C10           -1.4723    -1.6439    -1.1757 C.ar    
  11 C11           -2.0997    -2.1191    -2.3281 C.ar    
  12 C12           -1.9169    -1.4521    -3.5405 C.ar    
  13 C13           -1.1182    -0.3286    -3.5925 C.ar    
  14 C14           -0.5031     0.1405    -2.4452 C.ar    
  15 O15           -3.2174    -4.0611    -1.1750 O.3     
  16 N16           -3.9533    -4.9802    -1.4657 N.2     
  17 C17           -4.2427    -4.9450    -2.7412 C.2     
  18 N18           -3.6039    -3.8804    -3.2699 N.2     
  19 C19           -2.9539    -3.3241    -2.2651 C.2     
  20 C20           -5.3394    -5.7485    -4.8382 C.ar    
  21 C21           -5.1125    -5.9004    -3.4721 C.ar    
  22 C22           -5.7164    -6.9667    -2.8012 C.ar    
  23 C23           -6.5184    -7.8302    -3.5280 C.ar    
  24 C24           -6.6942    -7.6117    -4.8819 C.ar    
  25 N25           -6.1103    -6.5960    -5.4882 N.ar    
  26 C26           -2.2424     4.3446     0.0367 C.3     
  27 C27           -3.0502     3.9946     1.2880 C.3     
  28 C28           -1.9138     5.8389     0.0432 C.3     
  29 C29           -3.0624     4.0082    -1.2104 C.3     
  30 H30           -0.5043    -0.3865     0.8883 H       
  31 H31            1.6222    -1.3103     0.6569 H       
  32 H32            1.8295    -0.6512    -0.9989 H       
  33 H33            2.1582     0.8025     1.6863 H       
  34 H34            3.2409     0.8441     0.2544 H       
  35 H35            1.6918     2.1688    -1.0209 H       
  36 H36            1.4634     2.8499     0.6189 H       
  37 H37           -1.6094    -2.1557    -0.2346 H       
  38 H38           -2.3994    -1.8150    -4.4360 H       
  39 H39           -0.9757     0.1882    -4.5301 H       
  40 H40            0.1179     1.0229    -2.4904 H       
  41 H41           -4.8823    -4.9260    -5.3683 H       
  42 H42           -5.5614    -7.1138    -1.7425 H       
  43 H43           -7.0011    -8.6657    -3.0427 H       
  44 H44           -7.3191    -8.2832    -5.4521 H       
  45 H45           -2.4659     4.2343     2.1764 H       
  46 H46           -3.9758     4.5701     1.2957 H       
  47 H47           -3.2842     2.9300     1.2834 H       
  48 H48           -1.3383     6.0883    -0.8483 H       
  49 H49           -2.8395     6.4144     0.0508 H       
  50 H50           -1.3296     6.0786     0.9316 H       
  51 H51           -3.2965     2.9436    -1.2150 H       
  52 H52           -3.9881     4.5837    -1.2027 H       
  53 H53           -2.4869     4.2575    -2.1019 H       
@<TRIPOS>BOND
   1    1    2 1
   2    1    5 1
   3    1    6 am
   4    2    3 1
   5    2    9 1
   6    2   30 1
   7    3    4 1
   8    3   31 1
   9    3   32 1
  10    4    5 1
  11    4   33 1
  12    4   34 1
  13    5   35 1
  14    5   36 1
  15    6    7 2
  16    6    8 1
  17    8   26 1
  18    9   10 ar
  19    9   14 ar
  20   10   11 ar
  21   10   37 1
  22   11   12 ar
  23   11   19 1
  24   12   13 ar
  25   12   38 1
  26   13   14 ar
  27   13   39 1
  28   14   40 1
  29   15   16 1
  30   15   19 1
  31   16   17 2
  32   17   18 1
  33   17   21 1
  34   18   19 2
  35   20   21 ar
  36   20   25 ar
  37   20   41 1
  38   21   22 ar
  39   22   23 ar
  40   22   42 1
  41   23   24 ar
  42   23   43 1
  43   24   25 ar
  44   24   44 1
  45   26   27 1
  46   26   29 1
  47   26   28 1
  48   27   45 1
  49   27   46 1
  50   27   47 1
  51   28   48 1
  52   28   49 1
  53   28   50 1
  54   29   51 1
  55   29   52 1
  56   29   53 1

#	End of record

