#	Name: ASD05420017
#	Creating user name:	WinNT
#	Creation time:	15. 06. 2019 20:59

#	Modifying user name:	WinNT
#	Modification time:	15. 06. 2019 20:59

#	Program:	/corina/corina34_cracker 3.40 0067  02.08.2006

@<TRIPOS>MOLECULE
ASD05420017
  16   16    0    0    0
SMALL
NO_CHARGES


@<TRIPOS>ATOM
   1 N1             0.0084     1.3441     0.5290 N.pl3   
   2 C2             0.0146    -0.0297     0.2605 C.ar    
   3 C3             1.2213    -0.7099     0.1399 C.ar    
   4 C4             1.2239    -2.0685    -0.1257 C.ar    
   5 C5             0.0241    -2.7487    -0.2710 C.ar    
   6 C6            -1.1765    -2.0712    -0.1509 C.ar    
   7 C7            -1.1835    -0.7157     0.1199 C.ar    
   8 N8            -2.4692     0.0055     0.2540 N.pl3   
   9 O9            -3.4182    -0.5364     0.7920 O.2     
  10 O10           -2.5782     1.1407    -0.1736 O.2     
  11 F11            0.0274    -4.0745    -0.5307 F       
  12 F12            2.3951    -2.7315    -0.2438 F       
  13 F13            2.3893    -0.0460     0.2813 F       
  14 H14            0.8396     1.8439     0.5197 H       
  15 H15           -0.8278     1.7971     0.7204 H       
  16 H16           -2.1095    -2.6032    -0.2645 H       
@<TRIPOS>BOND
   1    1    2 1
   2    1   14 1
   3    1   15 1
   4    2    3 ar
   5    2    7 ar
   6    3    4 ar
   7    3   13 1
   8    4    5 ar
   9    4   12 1
  10    5    6 ar
  11    5   11 1
  12    6    7 ar
  13    6   16 1
  14    7    8 1
  15    8    9 2
  16    8   10 2

#	End of record

