#	Name: ASD01200250
#	Creating user name:	WinNT
#	Creation time:	15. 06. 2019 19:08

#	Modifying user name:	WinNT
#	Modification time:	15. 06. 2019 19:08

#	Program:	/corina/corina34_cracker 3.40 0067  02.08.2006

@<TRIPOS>MOLECULE
ASD01200250
  45   47    0    0    0
SMALL
NO_CHARGES


@<TRIPOS>ATOM
   1 C1            -0.0184     1.5028     0.0103 C.2     
   2 C2             0.0021    -0.0041     0.0020 C.3     
   3 C3            -0.7241    -0.5171    -1.2431 C.3     
   4 O4             1.0236     2.1234     0.0037 O.2     
   5 N5            -1.1946     2.1607     0.0195 N.am    
   6 C6             1.4295    -0.4870    -0.0142 C.ar    
   7 C7             1.9007    -1.2814     1.0152 C.ar    
   8 C8             3.2080    -1.7257     1.0037 C.ar    
   9 C9             4.0505    -1.3742    -0.0442 C.ar    
  10 C10            3.5733    -0.5762    -1.0772 C.ar    
  11 C11            2.2635    -0.1395    -1.0614 C.ar    
  12 S12            5.7196    -1.9383    -0.0629 S.3     
  13 C13            6.3745    -1.2245    -1.5966 C.3     
  14 F14            6.2789     0.1701    -1.5398 F       
  15 F15            7.7152    -1.5942    -1.7477 F       
  16 F16            5.6344    -1.6988    -2.6849 F       
  17 S17           -2.6280     4.5107     0.0390 S.3     
  18 C18           -1.2134     3.5506     0.0271 C.2     
  19 N19           -0.1611     4.3074     0.0270 N.2     
  20 C20           -0.3631     5.6117     0.0356 C.2     
  21 C21           -1.6473     5.9742     0.0434 C.2     
  22 C22           -0.8126    -2.0436    -1.1892 C.3     
  23 C23           -1.6487    -2.5652    -2.3710 C.3     
  24 C24           -0.7214    -3.4804    -3.1969 C.3     
  25 C25            0.3616    -3.9347    -2.1871 C.3     
  26 C26            0.5937    -2.6601    -1.3382 C.3     
  27 H27           -0.4983    -0.3791     0.8948 H       
  28 H28           -1.7288    -0.0959    -1.2772 H       
  29 H29           -0.1736    -0.2164    -2.1345 H       
  30 H30           -2.0280     1.6644     0.0207 H       
  31 H31            1.2455    -1.5542     1.8292 H       
  32 H32            3.5755    -2.3454     1.8082 H       
  33 H33            4.2253    -0.3007    -1.8929 H       
  34 H34            1.8908     0.4773    -1.8658 H       
  35 H35            0.4455     6.3276     0.0367 H       
  36 H36           -2.0203     6.9877     0.0511 H       
  37 H37           -1.2611    -2.3583    -0.2469 H       
  38 H38           -2.5025    -3.1337    -2.0022 H       
  39 H39           -1.9914    -1.7308    -2.9829 H       
  40 H40           -1.2734    -4.3401    -3.5767 H       
  41 H41           -0.2684    -2.9239    -4.0175 H       
  42 H42           -0.0076    -4.7507    -1.5657 H       
  43 H43            1.2754    -4.2254    -2.7053 H       
  44 H44            1.2590    -1.9711    -1.8586 H       
  45 H45            1.0012    -2.9211    -0.3616 H       
@<TRIPOS>BOND
   1    1    2 1
   2    1    4 2
   3    1    5 am
   4    2    3 1
   5    2    6 1
   6    2   27 1
   7    3   22 1
   8    3   28 1
   9    3   29 1
  10    5   18 1
  11    5   30 1
  12    6    7 ar
  13    6   11 ar
  14    7    8 ar
  15    7   31 1
  16    8    9 ar
  17    8   32 1
  18    9   10 ar
  19    9   12 1
  20   10   11 ar
  21   10   33 1
  22   11   34 1
  23   12   13 1
  24   13   14 1
  25   13   15 1
  26   13   16 1
  27   17   18 1
  28   17   21 1
  29   18   19 2
  30   19   20 1
  31   20   21 2
  32   20   35 1
  33   21   36 1
  34   22   23 1
  35   22   26 1
  36   22   37 1
  37   23   24 1
  38   23   38 1
  39   23   39 1
  40   24   25 1
  41   24   40 1
  42   24   41 1
  43   25   26 1
  44   25   42 1
  45   25   43 1
  46   26   44 1
  47   26   45 1

#	End of record

