#	Name: ASD08178107
#	Creating user name:	WinNT
#	Creation time:	15. 06. 2019 21:18

#	Modifying user name:	WinNT
#	Modification time:	15. 06. 2019 21:18

#	Program:	/corina/corina34_cracker 3.40 0067  02.08.2006

@<TRIPOS>MOLECULE
ASD08178107
  58   61    0    0    0
SMALL
NO_CHARGES


@<TRIPOS>ATOM
   1 C1            -0.0184     1.5028     0.0103 C.2     
   2 C2             0.0021    -0.0041     0.0020 C.3     
   3 C3             0.0221    -0.5218     1.4416 C.3     
   4 C4             0.0429    -2.0516     1.4332 C.3     
   5 C5             0.0630    -2.5693     2.8728 C.3     
   6 C6             0.0834    -4.0761     2.8645 C.2     
   7 N7             1.1436    -4.8308     2.8513 N.2     
   8 N8             0.7906    -6.0679     2.8484 N.2     
   9 C9            -0.5168    -6.1455     2.8599 C.2     
  10 O10           -0.9919    -4.8865     2.8754 O.3     
  11 N11           -1.2716    -7.3095     2.8604 N.am    
  12 N12            1.0209     2.2860     0.0046 N.2     
  13 C13           -0.6591    -8.5099     2.8487 C.2     
  14 O14            0.5520    -8.5726     2.8378 O.2     
  15 C15           -1.4791    -9.7743     2.8493 C.3     
  16 C16           -0.5604   -10.9688     2.8350 C.ar    
  17 N17            0.6345     3.5131     0.0141 N.2     
  18 C18           -0.6745     3.5551     0.0263 C.2     
  19 O19           -1.1153     2.2836     0.0191 O.3     
  20 C20            0.6922   -12.6069     1.6182 C.ar    
  21 C21           -0.1286   -11.5230     4.0255 C.ar    
  22 C22            0.7142   -12.6186     4.0124 C.ar    
  23 C23            1.1247   -13.1604     2.8087 C.ar    
  24 C24           -0.1540   -11.5139     1.6314 C.ar    
  25 N25           -1.4606     4.6980     0.0398 N.am    
  26 C26           -0.8808     5.9147     0.0406 C.2     
  27 O27            0.3281     6.0103     0.0296 O.2     
  28 C28           -1.7348     7.1563     0.0552 C.3     
  29 C29           -0.8488     8.3754     0.0532 C.ar    
  30 C30           -0.4539     8.9408    -1.1448 C.ar    
  31 C31            0.3588    10.0590    -1.1467 C.ar    
  32 C32            0.7762    10.6121     0.0495 C.ar    
  33 C33            0.3805    10.0472     1.2475 C.ar    
  34 C34           -0.4358     8.9316     1.2494 C.ar    
  35 H35           -0.8875    -0.3767    -0.5057 H       
  36 H36            0.8922    -0.3525    -0.5218 H       
  37 H37            0.9118    -0.1491     1.9494 H       
  38 H38           -0.8680    -0.1733     1.9655 H       
  39 H39           -0.8467    -2.4242     0.9255 H       
  40 H40            0.9330    -2.4000     0.9094 H       
  41 H41            0.9526    -2.1967     3.3806 H       
  42 H42           -0.8271    -2.2209     3.3967 H       
  43 H43           -2.2403    -7.2593     2.8691 H       
  44 H44           -2.1001    -9.8042     3.7446 H       
  45 H45           -2.1156    -9.7949     1.9647 H       
  46 H46            1.0097   -13.0327     0.6779 H       
  47 H47           -0.4493   -11.0996     4.9659 H       
  48 H48            1.0521   -13.0511     4.9425 H       
  49 H49            1.7832   -14.0165     2.7985 H       
  50 H50           -0.4919   -11.0813     0.7012 H       
  51 H51           -2.4275     4.6215     0.0485 H       
  52 H52           -2.3725     7.1691    -0.8287 H       
  53 H53           -2.3556     7.1598     0.9512 H       
  54 H54           -0.7800     8.5086    -2.0793 H       
  55 H55            0.6680    10.5003    -2.0826 H       
  56 H56            1.4117    11.4853     0.0480 H       
  57 H57            0.7069    10.4791     2.1820 H       
  58 H58           -0.7449     8.4902     2.1854 H       
@<TRIPOS>BOND
   1    1    2 1
   2    1   12 2
   3    1   19 1
   4    2    3 1
   5    2   35 1
   6    2   36 1
   7    3    4 1
   8    3   37 1
   9    3   38 1
  10    4    5 1
  11    4   39 1
  12    4   40 1
  13    5    6 1
  14    5   41 1
  15    5   42 1
  16    6    7 2
  17    6   10 1
  18    7    8 1
  19    8    9 2
  20    9   10 1
  21    9   11 1
  22   11   13 am
  23   11   43 1
  24   12   17 1
  25   13   14 2
  26   13   15 1
  27   15   16 1
  28   15   44 1
  29   15   45 1
  30   16   21 ar
  31   16   24 ar
  32   17   18 2
  33   18   19 1
  34   18   25 1
  35   20   24 ar
  36   20   23 ar
  37   20   46 1
  38   21   22 ar
  39   21   47 1
  40   22   23 ar
  41   22   48 1
  42   23   49 1
  43   24   50 1
  44   25   26 am
  45   25   51 1
  46   26   27 2
  47   26   28 1
  48   28   29 1
  49   28   52 1
  50   28   53 1
  51   29   30 ar
  52   29   34 ar
  53   30   31 ar
  54   30   54 1
  55   31   32 ar
  56   31   55 1
  57   32   33 ar
  58   32   56 1
  59   33   34 ar
  60   33   57 1
  61   34   58 1

#	End of record

