#	Name: ASD01914400
#	Creating user name:	WinNT
#	Creation time:	15. 06. 2019 20:03

#	Modifying user name:	WinNT
#	Modification time:	15. 06. 2019 20:03

#	Program:	/corina/corina34_cracker 3.40 0067  02.08.2006

@<TRIPOS>MOLECULE
ASD01914400
  52   56    0    0    0
SMALL
NO_CHARGES


@<TRIPOS>ATOM
   1 C1            -0.0167     1.3769     0.0096 C.ar    
   2 C2             0.0021    -0.0041     0.0020 C.ar    
   3 C3             1.2140    -0.6809    -0.0132 C.ar    
   4 C4             2.4051     0.0320    -0.0208 C.ar    
   5 C5             2.3825     1.4129    -0.0132 C.ar    
   6 C6             1.1726     2.0864     0.0021 C.ar    
   7 N7             1.2350    -2.0834    -0.0205 N.pl3   
   8 C8             0.5464    -2.9100     0.8264 C.2     
   9 C9             0.8560    -4.1831     0.4670 C.2     
  10 N10            1.7120    -4.1229    -0.5732 N.2     
  11 C11            1.9379    -2.8743    -0.8731 C.2     
  12 C12            0.3436    -5.4202     1.1060 C.ar    
  13 C13            0.7454    -6.6684     0.6343 C.ar    
  14 C14            0.2663    -7.8164     1.2316 C.ar    
  15 C15           -0.6129    -7.7293     2.2987 C.ar    
  16 C16           -1.0150    -6.4905     2.7710 C.ar    
  17 C17           -0.5364    -5.3373     2.1834 C.ar    
  18 C18            2.8398    -2.3875    -1.9780 C.3     
  19 O19            0.8611    -2.5115    -3.2581 O.2     
  20 C20            2.0441    -2.2445    -3.2497 C.2     
  21 N21            2.6471    -1.8198    -4.3778 N.am    
  22 C22            1.8888    -1.6734    -5.6293 C.3     
  23 C23            1.8712    -0.1946    -6.0363 C.3     
  24 C24            3.2616     0.3684    -5.8855 C.2     
  25 C25            4.2410    -0.2000    -5.1564 C.2     
  26 C26            4.0827    -1.4842    -4.3875 C.3     
  27 N27            3.7582     1.4896    -6.4251 N.2     
  28 C28            5.0001     1.6197    -6.0461 C.2     
  29 O29            5.3230     0.5832    -5.2565 O.3     
  30 F30            1.1524     3.4372     0.0100 F       
  31 F31           -1.0798    -8.8558     2.8803 F       
  32 C32            5.9209     2.7488    -6.4314 C.3     
  33 H33           -0.9594     1.9038     0.0169 H       
  34 H34           -0.9256    -0.5571     0.0083 H       
  35 H35            3.3489    -0.4929    -0.0323 H       
  36 H36            3.3090     1.9679    -0.0191 H       
  37 H37           -0.1145    -2.6085     1.6256 H       
  38 H38            1.4304    -6.7372    -0.1978 H       
  39 H39            0.5769    -8.7841     0.8664 H       
  40 H40           -1.7007    -6.4273     3.6029 H       
  41 H41           -0.8502    -4.3720     2.5525 H       
  42 H42            3.2622    -1.4210    -1.7030 H       
  43 H43            3.6454    -3.1054    -2.1322 H       
  44 H44            2.3641    -2.2616    -6.4143 H       
  45 H45            0.8671    -2.0222    -5.4792 H       
  46 H46            1.5516    -0.1054    -7.0745 H       
  47 H47            1.1835     0.3532    -5.3921 H       
  48 H48            4.4430    -1.3525    -3.3673 H       
  49 H49            4.6401    -2.2818    -4.8787 H       
  50 H50            5.8358     3.5526    -5.7002 H       
  51 H51            6.9489     2.3871    -6.4557 H       
  52 H52            5.6441     3.1232    -7.4169 H       
@<TRIPOS>BOND
   1    1    2 ar
   2    1    6 ar
   3    1   33 1
   4    2    3 ar
   5    2   34 1
   6    3    4 ar
   7    3    7 1
   8    4    5 ar
   9    4   35 1
  10    5    6 ar
  11    5   36 1
  12    6   30 1
  13    7    8 1
  14    7   11 1
  15    8    9 2
  16    8   37 1
  17    9   10 1
  18    9   12 1
  19   10   11 2
  20   11   18 1
  21   12   13 ar
  22   12   17 ar
  23   13   14 ar
  24   13   38 1
  25   14   15 ar
  26   14   39 1
  27   15   16 ar
  28   15   31 1
  29   16   17 ar
  30   16   40 1
  31   17   41 1
  32   18   20 1
  33   18   42 1
  34   18   43 1
  35   19   20 2
  36   20   21 am
  37   21   22 1
  38   21   26 1
  39   22   23 1
  40   22   44 1
  41   22   45 1
  42   23   24 1
  43   23   46 1
  44   23   47 1
  45   24   25 2
  46   24   27 1
  47   25   26 1
  48   25   29 1
  49   26   48 1
  50   26   49 1
  51   27   28 2
  52   28   29 1
  53   28   32 1
  54   32   50 1
  55   32   51 1
  56   32   52 1

#	End of record

