#	Name: ASD01916543
#	Creating user name:	WinNT
#	Creation time:	15. 06. 2019 20:07

#	Modifying user name:	WinNT
#	Modification time:	15. 06. 2019 20:07

#	Program:	/corina/corina34_cracker 3.40 0067  02.08.2006

@<TRIPOS>MOLECULE
ASD01916543
  37   39    0    0    0
SMALL
NO_CHARGES


@<TRIPOS>ATOM
   1 N1            -0.0169     1.3986     0.0097 N.pl3   
   2 N2             0.0021    -0.0041     0.0020 N.2     
   3 N3             1.2208    -0.4155    -0.0118 N.2     
   4 C4             2.0689     0.6325    -0.0143 C.ar    
   5 C5             1.2958     1.8066    -0.0006 C.ar    
   6 C6             1.9211     3.0486     0.0001 C.ar    
   7 C7             3.2961     3.1198    -0.0127 C.ar    
   8 C8             4.0606     1.9605    -0.0266 C.ar    
   9 C9             3.4661     0.7327    -0.0275 C.ar    
  10 C10           -1.2024     2.2592     0.0203 C.3     
  11 C11           -1.6076     2.5515     1.4664 C.3     
  12 C12           -2.8457     3.4503     1.4775 C.3     
  13 C13           -3.2509     3.7426     2.9236 C.3     
  14 C14           -4.4421     4.6074     2.9342 C.1     
  15 C15           -5.3921     5.2970     2.9427 C.1     
  16 C16           -6.5509     6.1383     2.9530 C.ar    
  17 C17           -7.1048     6.5389     4.1695 C.ar    
  18 C18           -8.2244     7.3516     4.1627 C.ar    
  19 C19           -8.7552     7.7386     2.9398 C.ar    
  20 C20           -8.1558     7.3050     1.7718 C.ar    
  21 N21           -7.0869     6.5357     1.8048 N.ar    
  22 H22            1.3311     3.9531     0.0102 H       
  23 H23            3.7834     4.0837    -0.0121 H       
  24 H24            5.1382     2.0317    -0.0373 H       
  25 H25            4.0720    -0.1613    -0.0381 H       
  26 H26           -0.9763     3.1955    -0.4900 H       
  27 H27           -2.0220     1.7551    -0.4918 H       
  28 H28           -1.8338     1.6152     1.9767 H       
  29 H29           -0.7881     3.0556     1.9786 H       
  30 H30           -2.6196     4.3866     0.9672 H       
  31 H31           -3.6653     2.9462     0.9653 H       
  32 H32           -3.4771     2.8063     3.4339 H       
  33 H33           -2.4313     4.2467     3.4357 H       
  34 H34           -6.6661     6.2187     5.1029 H       
  35 H35           -8.6755     7.6775     5.0882 H       
  36 H36           -9.6288     8.3725     2.9011 H       
  37 H37           -8.5672     7.6044     0.8191 H       
@<TRIPOS>BOND
   1    1    2 1
   2    1    5 1
   3    1   10 1
   4    2    3 2
   5    3    4 1
   6    4    5 ar
   7    4    9 ar
   8    5    6 ar
   9    6    7 ar
  10    6   22 1
  11    7    8 ar
  12    7   23 1
  13    8    9 ar
  14    8   24 1
  15    9   25 1
  16   10   11 1
  17   10   26 1
  18   10   27 1
  19   11   12 1
  20   11   28 1
  21   11   29 1
  22   12   13 1
  23   12   30 1
  24   12   31 1
  25   13   14 1
  26   13   32 1
  27   13   33 1
  28   14   15 3
  29   15   16 1
  30   16   17 ar
  31   16   21 ar
  32   17   18 ar
  33   17   34 1
  34   18   19 ar
  35   18   35 1
  36   19   20 ar
  37   19   36 1
  38   20   21 ar
  39   20   37 1

#	End of record

