#	Name: ASD01940363
#	Creating user name:	WinNT
#	Creation time:	15. 06. 2019 20:12

#	Modifying user name:	WinNT
#	Modification time:	15. 06. 2019 20:12

#	Program:	/corina/corina34_cracker 3.40 0067  02.08.2006

@<TRIPOS>MOLECULE
ASD01940363
  38   39    0    0    0
SMALL
NO_CHARGES


@<TRIPOS>ATOM
   1 C1             0.4792     0.9228     2.2898 C.ar    
   2 N2             1.2855    -1.9749     0.1765 N.pl3   
   3 O3            -0.3798    -3.4009     1.3899 O.2     
   4 C4             0.5132     0.0682     1.2077 C.ar    
   5 N5            -0.0460    -5.5162     1.9805 N.am    
   6 O6            -1.3303    -5.5979     2.5713 O.3     
   7 C7             1.2526    -1.1103     1.2734 C.ar    
   8 O8            -3.9946    -6.6665     2.7109 O.3     
   9 C9             1.9573    -1.4279     2.4281 C.ar    
  10 C10            1.9263    -0.5774     3.5128 C.ar    
  11 C11            1.1869     0.6048     3.4510 C.ar    
  12 C12            1.1542     1.4900     4.5761 C.1     
  13 C13            1.1274     2.2157     5.4986 C.1     
  14 C14            2.1217    -3.0857     0.1916 C.ar    
  15 C15            1.6945    -4.2823     0.7887 C.ar    
  16 C16            2.5441    -5.3929     0.7973 C.ar    
  17 C17            3.7918    -5.3090     0.2223 C.ar    
  18 C18            4.2140    -4.1250    -0.3683 C.ar    
  19 C19            3.3828    -3.0189    -0.3895 C.ar    
  20 C20            0.3583    -4.3674     1.4033 C.2     
  21 C21           -1.6261    -6.8729     3.1449 C.3     
  22 C22           -3.0309    -6.8460     3.7506 C.3     
  23 F23            3.7988    -1.8723    -0.9705 F       
  24 F24            5.4409    -4.0543    -0.9296 F       
  25 F25           -0.1713     0.3741     0.0838 F       
  26 H26           -0.0905     1.8389     2.2376 H       
  27 H27            0.7249    -1.8002    -0.5957 H       
  28 H28            0.5427    -6.2870     1.9912 H       
  29 H29           -4.9095    -6.6399     3.0229 H       
  30 H30            2.5297    -2.3424     2.4762 H       
  31 H31            2.4744    -0.8255     4.4097 H       
  32 H32            1.1034     2.8647     6.3236 H       
  33 H33            2.2214    -6.3162     1.2554 H       
  34 H34            4.4460    -6.1683     0.2308 H       
  35 H35           -1.5787    -7.6392     2.3712 H       
  36 H36           -0.8985    -7.0982     3.9246 H       
  37 H37           -3.1047    -6.0223     4.4607 H       
  38 H38           -3.2227    -7.7876     4.2652 H       
@<TRIPOS>BOND
   1    1    4 ar
   2    1   11 ar
   3    1   26 1
   4    2    7 1
   5    2   14 1
   6    2   27 1
   7    3   20 2
   8    4    7 ar
   9    4   25 1
  10    5    6 1
  11    5   20 am
  12    5   28 1
  13    6   21 1
  14    7    9 ar
  15    8   22 1
  16    8   29 1
  17    9   10 ar
  18    9   30 1
  19   10   11 ar
  20   10   31 1
  21   11   12 1
  22   12   13 3
  23   13   32 1
  24   14   15 ar
  25   14   19 ar
  26   15   16 ar
  27   15   20 1
  28   16   17 ar
  29   16   33 1
  30   17   18 ar
  31   17   34 1
  32   18   19 ar
  33   18   24 1
  34   19   23 1
  35   21   22 1
  36   21   35 1
  37   21   36 1
  38   22   37 1
  39   22   38 1

#	End of record

