#	Name: ASD01908377
#	Creating user name:	WinNT
#	Creation time:	15. 06. 2019 19:55

#	Modifying user name:	WinNT
#	Modification time:	15. 06. 2019 19:55

#	Program:	/corina/corina34_cracker 3.40 0067  02.08.2006

@<TRIPOS>MOLECULE
ASD01908377
  42   45    0    0    0
SMALL
NO_CHARGES


@<TRIPOS>ATOM
   1 C1             0.0814     1.2931    -1.2945 C.ar    
   2 C2             0.0950    -0.0830    -1.1668 C.ar    
   3 C3             1.2851    -0.7372    -0.9242 C.ar    
   4 C4             2.4718    -0.0232    -0.8070 C.ar    
   5 C5             2.4583     1.3472    -0.9341 C.ar    
   6 C6             1.2580     2.0040    -1.1785 C.ar    
   7 S7             4.1067    -0.6110    -0.5027 S.o2    
   8 N8             5.0914     0.7246    -0.4736 N.am    
   9 S9             4.0808     2.0127    -0.7461 S.o2    
  10 C10            6.4719     0.7577    -0.2643 C.ar    
  11 C11            7.1470     1.9704    -0.2716 C.ar    
  12 C12            7.1703    -0.4230    -0.0428 C.ar    
  13 C13            8.5360    -0.3910     0.1647 C.ar    
  14 C14            9.2115     0.8139     0.1528 C.ar    
  15 C15            8.5183     1.9988    -0.0633 C.ar    
  16 O16            4.4450     2.5508    -2.0099 O.2     
  17 O17            4.0675     2.7756     0.4526 O.2     
  18 O18            4.1061    -1.1405     0.8160 O.2     
  19 O19            4.4836    -1.3653    -1.6465 O.2     
  20 N20            9.2030     3.2181    -0.0752 N.am    
  21 C21           10.4492     3.2862    -0.5840 C.2     
  22 C22           11.1325     4.5908    -0.6916 C.ar    
  23 O23           11.0108     2.2735    -0.9545 O.2     
  24 C24           12.4254     4.6656    -1.2189 C.ar    
  25 C25           13.0579     5.8918    -1.3159 C.ar    
  26 C26           12.4145     7.0394    -0.8927 C.ar    
  27 C27           11.1343     6.9711    -0.3697 C.ar    
  28 C28           10.4884     5.7571    -0.2723 C.ar    
  29 F29           13.0548     3.5438    -1.6319 F       
  30 H30           -0.8468     1.8099    -1.4888 H       
  31 H31           -0.8233    -0.6444    -1.2563 H       
  32 H32            1.2946    -1.8125    -0.8242 H       
  33 H33            1.2464     3.0792    -1.2788 H       
  34 H34            6.6059     2.8899    -0.4394 H       
  35 H35            6.6450    -1.3666    -0.0326 H       
  36 H36            9.0764    -1.3100     0.3370 H       
  37 H37           10.2788     0.8355     0.3161 H       
  38 H38            8.7811     4.0148     0.2827 H       
  39 H39           14.0565     5.9526    -1.7228 H       
  40 H40           12.9130     7.9943    -0.9699 H       
  41 H41           10.6383     7.8725    -0.0411 H       
  42 H42            9.4897     5.7069     0.1356 H       
@<TRIPOS>BOND
   1    1    2 ar
   2    1    6 ar
   3    1   30 1
   4    2    3 ar
   5    2   31 1
   6    3    4 ar
   7    3   32 1
   8    4    5 ar
   9    4    7 1
  10    5    6 ar
  11    5    9 1
  12    6   33 1
  13    7    8 am
  14    7   18 2
  15    7   19 2
  16    8    9 am
  17    8   10 1
  18    9   16 2
  19    9   17 2
  20   10   11 ar
  21   10   12 ar
  22   11   15 ar
  23   11   34 1
  24   12   13 ar
  25   12   35 1
  26   13   14 ar
  27   13   36 1
  28   14   15 ar
  29   14   37 1
  30   15   20 1
  31   20   21 am
  32   20   38 1
  33   21   22 1
  34   21   23 2
  35   22   24 ar
  36   22   28 ar
  37   24   25 ar
  38   24   29 1
  39   25   26 ar
  40   25   39 1
  41   26   27 ar
  42   26   40 1
  43   27   28 ar
  44   27   41 1
  45   28   42 1

#	End of record

