#	Name: ASD01120315
#	Creating user name:	WinNT
#	Creation time:	15. 06. 2019 18:59

#	Modifying user name:	WinNT
#	Modification time:	15. 06. 2019 18:59

#	Program:	/corina/corina34_cracker 3.40 0067  02.08.2006

@<TRIPOS>MOLECULE
ASD01120315
  37   39    0    0    0
SMALL
NO_CHARGES


@<TRIPOS>ATOM
   1 C1            -0.0187     1.5258     0.0104 C.3     
   2 C2             0.0021    -0.0041     0.0020 C.3     
   3 O3             0.7043    -0.4851     1.1784 O.3     
   4 C4             0.8123    -1.8215     1.3232 C.2     
   5 O5             0.3323    -2.5641     0.4887 O.2     
   6 C6             1.5094    -2.3797     2.4887 C.2     
   7 N7             2.0943    -1.6439     3.5016 N.pl3   
   8 C8             2.6478    -2.5108     4.4145 C.ar    
   9 C9             2.4001    -3.8185     3.9563 C.ar    
  10 C10            1.6783    -3.7049     2.7478 C.2     
  11 C11            2.8628    -4.9197     4.7084 C.ar    
  12 C12            3.5554    -4.6967     5.8892 C.ar    
  13 C13            3.7917    -3.4033     6.3285 C.ar    
  14 C14            3.3460    -2.3194     5.6038 C.ar    
  15 N15            3.6096    -0.9469     6.0918 N.pl3   
  16 O16            4.2195    -0.7772     7.1324 O.2     
  17 O17            3.2166     0.0127     5.4528 O.2     
  18 C18            2.6102    -6.3023     4.2407 C.ar    
  19 C19            3.6581    -7.2201     4.1713 C.ar    
  20 C20            3.4172    -8.5066     3.7354 C.ar    
  21 C21            2.1379    -8.8873     3.3668 C.ar    
  22 C22            1.0939    -7.9802     3.4338 C.ar    
  23 C23            1.3225    -6.6927     3.8736 C.ar    
  24 Cl24           1.8420   -10.5075     2.8181 Cl      
  25 H25            1.0039     1.9031     0.0027 H       
  26 H26           -0.5459     1.8868    -0.8726 H       
  27 H27           -0.5289     1.8773     0.9072 H       
  28 H28           -1.0205    -0.3814     0.0098 H       
  29 H29            0.5123    -0.3556    -0.8948 H       
  30 H30            2.1115    -0.6757     3.5592 H       
  31 H31            1.3289    -4.5231     2.1355 H       
  32 H32            3.9122    -5.5348     6.4694 H       
  33 H33            4.3317    -3.2432     7.2500 H       
  34 H34            4.6564    -6.9241     4.4579 H       
  35 H35            4.2279    -9.2181     3.6813 H       
  36 H36            0.0980    -8.2823     3.1450 H       
  37 H37            0.5074    -5.9861     3.9258 H       
@<TRIPOS>BOND
   1    1    2 1
   2    1   25 1
   3    1   26 1
   4    1   27 1
   5    2    3 1
   6    2   28 1
   7    2   29 1
   8    3    4 1
   9    4    5 2
  10    4    6 1
  11    6    7 1
  12    6   10 2
  13    7    8 1
  14    7   30 1
  15    8    9 ar
  16    8   14 ar
  17    9   10 1
  18    9   11 ar
  19   10   31 1
  20   11   12 ar
  21   11   18 1
  22   12   13 ar
  23   12   32 1
  24   13   14 ar
  25   13   33 1
  26   14   15 1
  27   15   16 2
  28   15   17 2
  29   18   19 ar
  30   18   23 ar
  31   19   20 ar
  32   19   34 1
  33   20   21 ar
  34   20   35 1
  35   21   22 ar
  36   21   24 1
  37   22   23 ar
  38   22   36 1
  39   23   37 1

#	End of record

