#	Name: ASD07931669
#	Creating user name:	WinNT
#	Creation time:	15. 06. 2019 21:13

#	Modifying user name:	WinNT
#	Modification time:	15. 06. 2019 21:13

#	Program:	/corina/corina34_cracker 3.40 0067  02.08.2006

@<TRIPOS>MOLECULE
ASD07931669
  50   53    0    0    0
SMALL
NO_CHARGES


@<TRIPOS>ATOM
   1 N1            -0.0161     1.3365     0.0094 N.pl3   
   2 C2             0.0021    -0.0041     0.0020 C.2     
   3 C3             1.1793    -0.7228    -0.0131 C.2     
   4 C4             2.4585     0.0067    -0.0213 C.2     
   5 C5             2.3945     1.4796    -0.0128 C.ar    
   6 C6             3.5557     2.2520    -0.0192 C.ar    
   7 C7             3.4590     3.6263    -0.0105 C.ar    
   8 C8             2.2149     4.2401     0.0051 C.ar    
   9 C9             1.0595     3.4891     0.0121 C.ar    
  10 C10            1.1334     2.0990     0.0025 C.ar    
  11 C11            1.1574    -2.1921    -0.0203 C.2     
  12 O12            0.0956    -2.7842    -0.0130 O.2     
  13 O13            2.3147    -2.8834    -0.0350 O.3     
  14 S14            3.9570    -0.8208    -0.0395 S.2     
  15 C15           -1.3116     2.0204     0.0191 C.3     
  16 C16           -2.5527     2.6637     4.0596 C.ar    
  17 C17           -1.7870     3.6243     3.4020 C.ar    
  18 C18           -1.3893     3.4116     2.0976 C.ar    
  19 C19           -1.7492     2.2472     1.4433 C.ar    
  20 C20           -2.5097     1.2905     2.0911 C.ar    
  21 C21           -2.9128     1.4929     3.3955 C.ar    
  22 C22           -2.9781     2.8841     5.4641 C.ar    
  23 C23           -3.7438     1.9235     6.1217 C.ar    
  24 C24           -4.1367     2.1337     7.4279 C.ar    
  25 C25           -3.7720     3.2954     8.0841 C.ar    
  26 C26           -3.0123     4.2525     7.4360 C.ar    
  27 C27           -2.6083     4.0497     6.1319 C.ar    
  28 C28            2.2171    -4.3321    -0.0414 C.3     
  29 C29            3.6220    -4.9379    -0.0581 C.3     
  30 H30           -0.9361    -0.5390     0.0085 H       
  31 H31            4.5249     1.7757    -0.0306 H       
  32 H32            4.3556     4.2284    -0.0154 H       
  33 H33            2.1512     5.3182     0.0122 H       
  34 H34            0.0970     3.9788     0.0249 H       
  35 H35           -1.2198     2.9799    -0.4899 H       
  36 H36           -2.0508     1.4059    -0.4946 H       
  37 H37           -1.5054     4.5337     3.9120 H       
  38 H38           -0.7958     4.1554     1.5869 H       
  39 H39           -2.7882     0.3834     1.5754 H       
  40 H40           -3.5059     0.7449     3.9006 H       
  41 H41           -4.0297     1.0164     5.6100 H       
  42 H42           -4.7302     1.3898     7.9386 H       
  43 H43           -4.0819     3.4560     9.1062 H       
  44 H44           -2.7306     5.1580     7.9529 H       
  45 H45           -2.0108     4.7953     5.6284 H       
  46 H46            1.6887    -4.6646     0.8521 H       
  47 H47            1.6714    -4.6556    -0.9278 H       
  48 H48            3.5487    -6.0254    -0.0629 H       
  49 H49            4.1504    -4.6054    -0.9516 H       
  50 H50            4.1677    -4.6144     0.8282 H       
@<TRIPOS>BOND
   1    1    2 1
   2    1   10 1
   3    1   15 1
   4    2    3 2
   5    2   30 1
   6    3    4 1
   7    3   11 1
   8    4    5 1
   9    4   14 2
  10    5    6 ar
  11    5   10 ar
  12    6    7 ar
  13    6   31 1
  14    7    8 ar
  15    7   32 1
  16    8    9 ar
  17    8   33 1
  18    9   10 ar
  19    9   34 1
  20   11   12 2
  21   11   13 1
  22   13   28 1
  23   15   19 1
  24   15   35 1
  25   15   36 1
  26   16   17 ar
  27   16   21 ar
  28   16   22 1
  29   17   18 ar
  30   17   37 1
  31   18   19 ar
  32   18   38 1
  33   19   20 ar
  34   20   21 ar
  35   20   39 1
  36   21   40 1
  37   22   23 ar
  38   22   27 ar
  39   23   24 ar
  40   23   41 1
  41   24   25 ar
  42   24   42 1
  43   25   26 ar
  44   25   43 1
  45   26   27 ar
  46   26   44 1
  47   27   45 1
  48   28   29 1
  49   28   46 1
  50   28   47 1
  51   29   48 1
  52   29   49 1
  53   29   50 1

#	End of record

