#	Name: ASD01900584
#	Creating user name:	WinNT
#	Creation time:	15. 06. 2019 19:52

#	Modifying user name:	WinNT
#	Modification time:	15. 06. 2019 19:52

#	Program:	/corina/corina34_cracker 3.40 0067  02.08.2006

@<TRIPOS>MOLECULE
ASD01900584
  41   43    0    0    0
SMALL
NO_CHARGES


@<TRIPOS>ATOM
   1 N1            -0.0423     1.3100    -0.0164 N.ar    
   2 C2            -0.0247    -0.0040    -0.0691 C.ar    
   3 C3             0.8886    -0.7339     0.6745 C.ar    
   4 C4             1.7948    -0.0659     1.4835 C.ar    
   5 C5             1.7536     1.3188     1.5191 C.ar    
   6 C6             0.8077     1.9878     0.7451 C.ar    
   7 C7             0.7503     3.4677     0.7722 C.2     
   8 O8             1.5261     4.0932     1.4676 O.2     
   9 N9            -0.1624     4.1204     0.0257 N.am    
  10 C10           -0.2815     5.5067     0.1244 C.ar    
  11 C11            0.8545     6.2882     0.3214 C.ar    
  12 C12            0.7456     7.6561     0.4197 C.ar    
  13 C13           -0.5100     8.2661     0.3212 C.ar    
  14 C14           -1.6543     7.4768     0.1221 C.ar    
  15 C15           -1.5318     6.1028     0.0200 C.ar    
  16 O16           -2.8760     8.0607     0.0254 O.3     
  17 C17           -3.9947     7.1948    -0.1768 C.3     
  18 N18           -0.6218     9.6207     0.4185 N.2     
  19 N19            0.4309    10.3433     0.6018 N.2     
  20 C20            0.3187    11.7021     0.6995 C.ar    
  21 C21            1.4580    12.4890     0.8982 C.ar    
  22 C22            1.3360    13.8605     0.9958 C.ar    
  23 C23            0.0909    14.4562     0.8979 C.ar    
  24 C24           -1.0402    13.6835     0.7017 C.ar    
  25 C25           -0.9338    12.3125     0.5955 C.ar    
  26 Cl26           3.0205    11.7430     1.0224 Cl      
  27 H27           -0.7321    -0.5212    -0.7004 H       
  28 H28            0.8942    -1.8128     0.6246 H       
  29 H29            2.5162    -0.6123     2.0729 H       
  30 H30            2.4444     1.8715     2.1385 H       
  31 H31           -0.7366     3.6262    -0.5801 H       
  32 H32            1.8242     5.8188     0.3976 H       
  33 H33            1.6285     8.2588     0.5731 H       
  34 H34           -2.4092     5.4929    -0.1372 H       
  35 H35           -3.8611     6.6396    -1.1053 H       
  36 H36           -4.0690     6.4964     0.6567 H       
  37 H37           -4.9072     7.7880    -0.2363 H       
  38 H38            2.2143    14.4700     1.1493 H       
  39 H39            0.0014    15.5297     0.9753 H       
  40 H40           -2.0086    14.1558     0.6270 H       
  41 H41           -1.8173    11.7116     0.4376 H       
@<TRIPOS>BOND
   1    1    2 ar
   2    1    6 ar
   3    2    3 ar
   4    2   27 1
   5    3    4 ar
   6    3   28 1
   7    4    5 ar
   8    4   29 1
   9    5    6 ar
  10    5   30 1
  11    6    7 1
  12    7    8 2
  13    7    9 am
  14    9   10 1
  15    9   31 1
  16   10   11 ar
  17   10   15 ar
  18   11   12 ar
  19   11   32 1
  20   12   13 ar
  21   12   33 1
  22   13   14 ar
  23   13   18 1
  24   14   15 ar
  25   14   16 1
  26   15   34 1
  27   16   17 1
  28   17   35 1
  29   17   36 1
  30   17   37 1
  31   18   19 2
  32   19   20 1
  33   20   21 ar
  34   20   25 ar
  35   21   22 ar
  36   21   26 1
  37   22   23 ar
  38   22   38 1
  39   23   24 ar
  40   23   39 1
  41   24   25 ar
  42   24   40 1
  43   25   41 1

#	End of record

