#	Name: ASD01148356
#	Creating user name:	WinNT
#	Creation time:	15. 06. 2019 19:02

#	Modifying user name:	WinNT
#	Modification time:	15. 06. 2019 19:02

#	Program:	/corina/corina34_cracker 3.40 0067  02.08.2006

@<TRIPOS>MOLECULE
ASD01148356
  48   51    0    0    0
SMALL
NO_CHARGES


@<TRIPOS>ATOM
   1 C1            -0.4098     1.8312    -0.0437 C.ar    
   2 C2            -0.4707     0.4508     0.0164 C.ar    
   3 C3             0.6965    -0.2902     0.0957 C.ar    
   4 C4             1.9218     0.3509     0.1148 C.ar    
   5 C5             1.9808     1.7308     0.0546 C.ar    
   6 C6             0.8158     2.4705    -0.0246 C.ar    
   7 C7             3.3162     2.4290     0.0754 C.3     
   8 O8             4.3316     1.6198    -0.5520 O.3     
   9 C9             3.3017     3.6792    -0.8363 C.3     
  10 C10            3.8439     3.1385    -2.1458 C.2     
  11 N11            4.3963     1.9951    -1.9136 N.2     
  12 C12            3.7543     3.8049    -3.4598 C.ar    
  13 C13            4.2987     3.1930    -4.5921 C.ar    
  14 C14            3.1203     5.0447    -3.5726 C.ar    
  15 C15            3.0369     5.6662    -4.7981 C.ar    
  16 C16            3.5858     5.0569    -5.9291 C.ar    
  17 C17            4.2153     3.8144    -5.8173 C.ar    
  18 C18            3.4958     5.7237    -7.2444 C.2     
  19 O19            4.0680     5.2499    -8.2064 O.2     
  20 N20            2.7792     6.8574    -7.3776 N.am    
  21 C21            4.8073     3.1572    -7.0373 C.3     
  22 C22            3.7159     2.7978     1.5055 C.3     
  23 F23            3.7878     1.6373     2.2835 F       
  24 F24            4.9645     3.4287     1.4927 F       
  25 F25            2.7610     3.6644     2.0479 F       
  26 Cl26           0.6217    -2.0230     0.1718 Cl      
  27 Cl27          -2.0096    -0.3524    -0.0071 Cl      
  28 C28            2.6946     7.4840    -8.6136 C.ar    
  29 N29            1.9862     8.5971    -8.7267 N.ar    
  30 N30            3.3286     6.9570    -9.6499 N.ar    
  31 C31            3.2688     7.5285   -10.8413 C.ar    
  32 C32            2.5315     8.6920   -10.9966 C.ar    
  33 C33            1.8851     9.2192    -9.8896 C.ar    
  34 H34           -1.3195     2.4095    -0.1101 H       
  35 H35            2.8324    -0.2264     0.1770 H       
  36 H36            0.8631     3.5484    -0.0715 H       
  37 H37            2.2860     4.0538    -0.9632 H       
  38 H38            3.9549     4.4559    -0.4383 H       
  39 H39            4.7853     2.2327    -4.5057 H       
  40 H40            2.6953     5.5154    -2.6983 H       
  41 H41            2.5467     6.6246    -4.8853 H       
  42 H42            2.3225     7.2355    -6.6099 H       
  43 H43            5.8035     3.5602    -7.2197 H       
  44 H44            4.8748     2.0816    -6.8740 H       
  45 H45            4.1719     3.3545    -7.9007 H       
  46 H46            3.7884     7.0942   -11.6826 H       
  47 H47            2.4661     9.1796   -11.9581 H       
  48 H48            1.3021    10.1242    -9.9765 H       
@<TRIPOS>BOND
   1    1    2 ar
   2    1    6 ar
   3    1   34 1
   4    2    3 ar
   5    2   27 1
   6    3    4 ar
   7    3   26 1
   8    4    5 ar
   9    4   35 1
  10    5    6 ar
  11    5    7 1
  12    6   36 1
  13    7    8 1
  14    7    9 1
  15    7   22 1
  16    8   11 1
  17    9   10 1
  18    9   37 1
  19    9   38 1
  20   10   11 2
  21   10   12 1
  22   12   13 ar
  23   12   14 ar
  24   13   17 ar
  25   13   39 1
  26   14   15 ar
  27   14   40 1
  28   15   16 ar
  29   15   41 1
  30   16   17 ar
  31   16   18 1
  32   17   21 1
  33   18   19 2
  34   18   20 am
  35   20   28 1
  36   20   42 1
  37   21   43 1
  38   21   44 1
  39   21   45 1
  40   22   23 1
  41   22   24 1
  42   22   25 1
  43   28   29 ar
  44   28   30 ar
  45   29   33 ar
  46   30   31 ar
  47   31   32 ar
  48   31   46 1
  49   32   33 ar
  50   32   47 1
  51   33   48 1

#	End of record

