#	Name: ASD01840142
#	Creating user name:	WinNT
#	Creation time:	15. 06. 2019 19:37

#	Modifying user name:	WinNT
#	Modification time:	15. 06. 2019 19:37

#	Program:	/corina/corina34_cracker 3.40 0067  02.08.2006

@<TRIPOS>MOLECULE
ASD01840142
  48   50    0    0    0
SMALL
NO_CHARGES


@<TRIPOS>ATOM
   1 C1             0.2614     1.7551    -0.9985 C.ar    
   2 C2             0.3847     0.5319    -1.6201 C.ar    
   3 N3             1.4997    -0.1674    -1.4974 N.ar    
   4 N4             2.5005     0.2430    -0.8118 N.ar    
   5 C5             1.3547     2.2266    -0.2367 C.ar    
   6 C6             1.5106     3.4573     0.5163 C.2     
   7 C7             2.4930     1.4121    -0.1671 C.ar    
   8 S8             3.7249     2.1824     0.8226 S.3     
   9 C9             2.7121     3.5788     1.1333 C.2     
  10 C10           -0.7556    -0.0109    -2.4424 C.3     
  11 C11           -0.9997     2.5694    -1.1319 C.3     
  12 C12            3.1107     4.7245     1.9497 C.2     
  13 N13            0.5181     4.4246     0.5973 N.pl3   
  14 O14            2.3408     5.6537     2.1117 O.2     
  15 N15            4.3302     4.7520     2.5228 N.am    
  16 C16            6.6056     6.9126     4.6071 C.ar    
  17 C17            5.9051     7.3526     5.7154 C.ar    
  18 C18            7.7273     7.5972     4.1786 C.ar    
  19 C19            8.1527     8.7240     4.8567 C.ar    
  20 C20            7.4535     9.1685     5.9681 C.ar    
  21 C21            6.3258     8.4796     6.3974 C.ar    
  22 O22            7.8705    10.2764     6.6368 O.3     
  23 C23            9.0374    10.9339     6.1388 C.3     
  24 F24            5.6413     8.9102     7.4796 F       
  25 C25            4.7295     5.8999     3.3407 C.3     
  26 C26            6.1487     5.6809     3.8688 C.3     
  27 C27            6.1596     4.4826     4.8201 C.3     
  28 H28           -0.6490     0.3208    -3.4752 H       
  29 H29           -0.7424    -1.1003    -2.4075 H       
  30 H30           -1.7003     0.3541    -2.0393 H       
  31 H31           -1.6440     2.3848    -0.2724 H       
  32 H32           -0.7454     3.6285    -1.1747 H       
  33 H33           -1.5216     2.2839    -2.0452 H       
  34 H34           -0.4027     4.1926     0.3992 H       
  35 H35            0.7455     5.3326     0.8518 H       
  36 H36            4.9435     4.0117     2.3937 H       
  37 H37            5.0290     6.8159     6.0482 H       
  38 H38            8.2724     7.2509     3.3129 H       
  39 H39            9.0295     9.2578     4.5210 H       
  40 H40            9.2602    11.8000     6.7619 H       
  41 H41            9.8808    10.2437     6.1610 H       
  42 H42            8.8614    11.2595     5.1135 H       
  43 H43            4.7032     6.8050     2.7340 H       
  44 H44            4.0418     6.0049     4.1799 H       
  45 H45            6.8214     5.4875     3.0332 H       
  46 H46            5.8291     3.5917     4.2861 H       
  47 H47            7.1706     4.3266     5.1963 H       
  48 H48            5.4868     4.6759     5.6556 H       
@<TRIPOS>BOND
   1    1    2 ar
   2    1    5 ar
   3    1   11 1
   4    2    3 ar
   5    2   10 1
   6    3    4 ar
   7    4    7 ar
   8    5    7 ar
   9    5    6 1
  10    6    9 2
  11    6   13 1
  12    7    8 1
  13    8    9 1
  14    9   12 1
  15   10   28 1
  16   10   29 1
  17   10   30 1
  18   11   31 1
  19   11   32 1
  20   11   33 1
  21   12   14 2
  22   12   15 am
  23   13   34 1
  24   13   35 1
  25   15   25 1
  26   15   36 1
  27   16   18 ar
  28   16   17 ar
  29   16   26 1
  30   17   21 ar
  31   17   37 1
  32   18   19 ar
  33   18   38 1
  34   19   20 ar
  35   19   39 1
  36   20   21 ar
  37   20   22 1
  38   21   24 1
  39   22   23 1
  40   23   40 1
  41   23   41 1
  42   23   42 1
  43   25   26 1
  44   25   43 1
  45   25   44 1
  46   26   27 1
  47   26   45 1
  48   27   46 1
  49   27   47 1
  50   27   48 1

#	End of record

