#	Name: ASD01915938
#	Creating user name:	WinNT
#	Creation time:	15. 06. 2019 20:06

#	Modifying user name:	WinNT
#	Modification time:	15. 06. 2019 20:06

#	Program:	/corina/corina34_cracker 3.40 0067  02.08.2006

@<TRIPOS>MOLECULE
ASD01915938
  38   40    0    0    0
SMALL
NO_CHARGES


@<TRIPOS>ATOM
   1 C1            -0.4076     1.7374     0.1057 C.ar    
   2 C2            -0.5394     0.3871     0.3747 C.ar    
   3 N3             0.5042    -0.3422     0.7080 N.ar    
   4 C4             1.7218     0.1800     0.8007 C.ar    
   5 C5             1.9343     1.5310     0.5452 C.ar    
   6 C6             0.8500     2.3292     0.1902 C.ar    
   7 C7            -1.8982    -0.2584     0.2852 C.3     
   8 O8             1.0149     3.6516    -0.0677 O.3     
   9 C9             2.2664     4.1709     0.0375 C.ar    
  10 C10            3.1965     3.9751    -0.9731 C.ar    
  11 N11            4.4117     4.4771    -0.8761 N.ar    
  12 C12            4.7917     5.1789     0.1733 C.ar    
  13 C13            3.9206     5.4164     1.2220 C.ar    
  14 C14            2.6311     4.9112     1.1577 C.ar    
  15 C15            2.8639    -0.6837     1.1802 C.2     
  16 N16            2.6649    -1.9932     1.4295 N.am    
  17 O17            3.9803    -0.2116     1.2666 O.2     
  18 C18            3.7519    -2.8272     1.6831 C.ar    
  19 C19            3.5504    -4.1944     1.8236 C.ar    
  20 C20            4.6507    -5.0170     2.0772 C.ar    
  21 C21            5.9140    -4.4206     2.1784 C.ar    
  22 C22            6.0260    -3.0541     2.0256 C.ar    
  23 N23            4.9657    -2.3086     1.7819 N.ar    
  24 Cl24           4.4340     6.3417     2.5982 Cl      
  25 C25            4.4913    -6.4319     2.2299 C.1     
  26 N26            4.3648    -7.5543     2.3510 N.1     
  27 H27           -1.2700     2.3255    -0.1712 H       
  28 H28            2.9250     1.9542     0.6214 H       
  29 H29           -2.0591    -0.6278    -0.7276 H       
  30 H30           -1.9525    -1.0898     0.9881 H       
  31 H31           -2.6660     0.4754     0.5305 H       
  32 H32            2.9222     3.4051    -1.8484 H       
  33 H33            5.7962     5.5734     0.2151 H       
  34 H34            1.9297     5.0808     1.9613 H       
  35 H35            1.7649    -2.3550     1.4324 H       
  36 H36            2.5591    -4.6146     1.7386 H       
  37 H37            6.7890    -5.0227     2.3740 H       
  38 H38            6.9973    -2.5882     2.1029 H       
@<TRIPOS>BOND
   1    1    2 ar
   2    1    6 ar
   3    1   27 1
   4    2    3 ar
   5    2    7 1
   6    3    4 ar
   7    4    5 ar
   8    4   15 1
   9    5    6 ar
  10    5   28 1
  11    6    8 1
  12    7   29 1
  13    7   30 1
  14    7   31 1
  15    8    9 1
  16    9   10 ar
  17    9   14 ar
  18   10   11 ar
  19   10   32 1
  20   11   12 ar
  21   12   13 ar
  22   12   33 1
  23   13   14 ar
  24   13   24 1
  25   14   34 1
  26   15   16 am
  27   15   17 2
  28   16   18 1
  29   16   35 1
  30   18   19 ar
  31   18   23 ar
  32   19   20 ar
  33   19   36 1
  34   20   21 ar
  35   20   25 1
  36   21   22 ar
  37   21   37 1
  38   22   23 ar
  39   22   38 1
  40   25   26 3

#	End of record

