#	Name: ASD04882144
#	Creating user name:	WinNT
#	Creation time:	15. 06. 2019 20:54

#	Modifying user name:	WinNT
#	Modification time:	15. 06. 2019 20:54

#	Program:	/corina/corina34_cracker 3.40 0067  02.08.2006

@<TRIPOS>MOLECULE
ASD04882144
  78   82    0    0    0
SMALL
NO_CHARGES


@<TRIPOS>ATOM
   1 C1            -0.3877    -1.5767    -3.9632 C.ar    
   2 C2             0.2018    -2.6961    -3.4061 C.ar    
   3 C3             1.1878    -2.5534    -2.4478 C.ar    
   4 C4             1.5846    -1.2914    -2.0469 C.ar    
   5 C5             0.9956    -0.1720    -2.6046 C.ar    
   6 C6             0.0087    -0.3146    -3.5619 C.ar    
   7 S7             2.8406    -1.1095    -0.8245 S.o2    
   8 O8             2.6471     0.1701    -0.2377 O.2     
   9 O9             2.8474    -2.3159    -0.0737 O.2     
  10 N10            4.2921    -1.0450    -1.6190 N.am    
  11 C11            4.5519    -0.0043    -2.5194 C.ar    
  12 C12            4.3240    -0.1886    -3.8859 C.ar    
  13 C13            4.5813     0.8432    -4.7806 C.ar    
  14 C14            5.0617     2.0510    -4.3244 C.ar    
  15 C15            5.2914     2.2423    -2.9594 C.ar    
  16 C16            5.0283     1.2075    -2.0567 C.ar    
  17 N17            3.8386    -1.4088    -4.3519 N.3     
  18 C18            4.8261    -2.4788    -4.1536 C.3     
  19 C19            3.4454    -1.3142    -5.7647 C.3     
  20 C20            2.8454    -2.6482    -6.2150 C.3     
  21 N21            3.8329    -3.7183    -6.0167 N.3     
  22 C22            4.2261    -3.8129    -4.6038 C.3     
  23 C23            3.3464    -4.9414    -6.4838 C.ar    
  24 C24            2.1877    -5.4823    -5.9417 C.ar    
  25 C25            4.0172    -5.6168    -7.4957 C.ar    
  26 C26            3.5334    -6.8258    -7.9552 C.ar    
  27 C27            2.3822    -7.3642    -7.4095 C.ar    
  28 C28            1.7093    -6.6920    -6.4060 C.ar    
  29 C29            5.2710    -5.0305    -8.0916 C.3     
  30 C30            5.8063     3.5356    -2.4710 C.2     
  31 N31            6.0557     4.5338    -3.3416 N.am    
  32 O32            6.0059     3.7010    -1.2830 O.2     
  33 C33            6.5670     5.8181    -2.8566 C.3     
  34 C34            6.7625     6.7687    -4.0394 C.3     
  35 C35            7.2966     8.1100    -3.5329 C.3     
  36 N36            7.4837     9.0202    -4.6655 N.am    
  37 C37            6.5408     9.8592    -5.1281 C.2     
  38 C38            8.7267     9.1376    -5.4369 C.3     
  39 C39            8.3323     9.8540    -6.7475 C.3     
  40 C40            7.0733    10.6398    -6.3095 C.3     
  41 O41            5.4253     9.9733    -4.6660 O.2     
  42 H42           -1.1549    -1.6881    -4.7151 H       
  43 H43           -0.1081    -3.6821    -3.7193 H       
  44 H44            1.6479    -3.4279    -2.0121 H       
  45 H45            1.3051     0.8140    -2.2908 H       
  46 H46           -0.4517     0.5599    -3.9973 H       
  47 H47            4.9624    -1.7280    -1.4608 H       
  48 H48            4.4045     0.6977    -5.8361 H       
  49 H49            5.2613     2.8507    -5.0224 H       
  50 H50            5.2048     1.3523    -1.0011 H       
  51 H51            5.7181    -2.2641    -4.7422 H       
  52 H52            5.0919    -2.5374    -3.0981 H       
  53 H53            2.7045    -0.5236    -5.8838 H       
  54 H54            4.3216    -1.0862    -6.3716 H       
  55 H55            1.9534    -2.8629    -5.6264 H       
  56 H56            2.5796    -2.5897    -7.2704 H       
  57 H57            4.9670    -4.6035    -4.4847 H       
  58 H58            3.3499    -4.0409    -3.9970 H       
  59 H59            1.6615    -4.9578    -5.1578 H       
  60 H60            4.0544    -7.3514    -8.7418 H       
  61 H61            2.0056    -8.3095    -7.7712 H       
  62 H62            0.8106    -7.1152    -5.9820 H       
  63 H63            6.1379    -5.3819    -7.5321 H       
  64 H64            5.3592    -5.3428    -9.1322 H       
  65 H65            5.2229    -3.9427    -8.0415 H       
  66 H66            5.8965     4.4018    -4.2893 H       
  67 H67            5.8538     6.2519    -2.1558 H       
  68 H68            7.5216     5.6626    -2.3539 H       
  69 H69            7.4758     6.3348    -4.7402 H       
  70 H70            5.8079     6.9242    -4.5422 H       
  71 H71            6.5833     8.5438    -2.8321 H       
  72 H72            8.2511     7.9545    -3.0302 H       
  73 H73            9.4570     9.7317    -4.8874 H       
  74 H74            9.1306     8.1488    -5.6543 H       
  75 H75            9.1203    10.5330    -7.0733 H       
  76 H76            8.0928     9.1331    -7.5292 H       
  77 H77            6.3386    10.6624    -7.1143 H       
  78 H78            7.3414    11.6523    -6.0078 H       
@<TRIPOS>BOND
   1    1    2 ar
   2    1    6 ar
   3    1   42 1
   4    2    3 ar
   5    2   43 1
   6    3    4 ar
   7    3   44 1
   8    4    5 ar
   9    4    7 1
  10    5    6 ar
  11    5   45 1
  12    6   46 1
  13    7    8 2
  14    7    9 2
  15    7   10 am
  16   10   11 1
  17   10   47 1
  18   11   12 ar
  19   11   16 ar
  20   12   13 ar
  21   12   17 1
  22   13   14 ar
  23   13   48 1
  24   14   15 ar
  25   14   49 1
  26   15   16 ar
  27   15   30 1
  28   16   50 1
  29   17   18 1
  30   17   19 1
  31   18   22 1
  32   18   51 1
  33   18   52 1
  34   19   20 1
  35   19   53 1
  36   19   54 1
  37   20   21 1
  38   20   55 1
  39   20   56 1
  40   21   22 1
  41   21   23 1
  42   22   57 1
  43   22   58 1
  44   23   24 ar
  45   23   25 ar
  46   24   28 ar
  47   24   59 1
  48   25   26 ar
  49   25   29 1
  50   26   27 ar
  51   26   60 1
  52   27   28 ar
  53   27   61 1
  54   28   62 1
  55   29   63 1
  56   29   64 1
  57   29   65 1
  58   30   31 am
  59   30   32 2
  60   31   33 1
  61   31   66 1
  62   33   34 1
  63   33   67 1
  64   33   68 1
  65   34   35 1
  66   34   69 1
  67   34   70 1
  68   35   36 1
  69   35   71 1
  70   35   72 1
  71   36   37 am
  72   36   38 1
  73   37   41 2
  74   37   40 1
  75   38   39 1
  76   38   73 1
  77   38   74 1
  78   39   40 1
  79   39   75 1
  80   39   76 1
  81   40   77 1
  82   40   78 1

#	End of record

