#	Name: ASD05430019
#	Creating user name:	WinNT
#	Creation time:	15. 06. 2019 20:59

#	Modifying user name:	WinNT
#	Modification time:	15. 06. 2019 20:59

#	Program:	/corina/corina34_cracker 3.40 0067  02.08.2006

@<TRIPOS>MOLECULE
ASD05430019
  78   84    0    0    0
SMALL
NO_CHARGES


@<TRIPOS>ATOM
   1 C1            -0.3285     0.1941    -1.0247 C.ar    
   2 C2            -0.3529    -1.0047    -0.3127 C.ar    
   3 C3            -1.4994    -1.3859     0.3726 C.ar    
   4 C4            -2.6177    -0.5814     0.3525 C.ar    
   5 C5            -2.6003     0.6226    -0.3592 C.ar    
   6 C6            -1.4448     1.0087    -1.0450 C.ar    
   7 C7            -5.2494    -0.5676    -0.3962 C.3     
   8 C8            -5.0213     0.9339    -0.3186 C.2     
   9 C9            -3.7943     1.4833    -0.3822 C.2     
  10 C10           -6.4418    -0.8283    -1.3234 C.3     
  11 C11           -7.7201    -0.2283    -0.7266 C.3     
  12 N12           -7.5009     1.1877    -0.4466 N.pl3   
  13 C13           -6.2498     1.7461    -0.1683 C.2     
  14 C14           -8.4593     2.2933    -0.4159 C.3     
  15 O15           -7.7463     3.3311     0.2892 O.3     
  16 N16           -6.3735     2.9675     0.2253 N.2     
  17 C17           -8.8014     2.7392    -1.8142 C.ar    
  18 C18           -9.1110     1.8016    -2.7818 C.ar    
  19 C19           -9.7224     1.8914     0.3483 C.3     
  20 N20            0.7817    -1.8268    -0.2888 N.pl3   
  21 C21            1.5020    -2.2403    -1.3637 C.2     
  22 C22            1.3779    -2.3609     0.8242 C.2     
  23 C23            2.4309    -3.0821     0.3945 C.2     
  24 N24            2.4832    -2.9911    -0.9426 N.2     
  25 C25            3.3881    -3.8538     1.2659 C.3     
  26 C26           -9.4253     2.2094    -4.0643 C.ar    
  27 C27           -9.4302     3.5575    -4.3799 C.ar    
  28 C28           -9.1200     4.4956    -3.4099 C.ar    
  29 C29           -8.8110     4.0858    -2.1268 C.ar    
  30 F30           -9.7369     3.9572    -5.6334 F       
  31 O31            0.7954     0.5642    -1.6943 O.3     
  32 C32            0.7497     1.8045    -2.4025 C.3     
  33 C33            2.0952     2.0500    -3.0884 C.3     
  34 C34            2.0464     3.3780    -3.8467 C.3     
  35 C35           -6.1771    -0.1926    -2.6652 C.ar    
  36 C36           -5.7687    -0.9449    -3.7522 C.ar    
  37 O37           -5.5929    -2.2893    -3.6672 O.3     
  38 C38           -5.4768    -2.8665    -2.3659 C.3     
  39 C39           -6.6257    -2.3380    -1.4975 C.3     
  40 C40           -6.3511     1.1749    -2.7997 C.ar    
  41 C41           -6.1176     1.7913    -4.0133 C.ar    
  42 C42           -5.7066     1.0424    -5.1008 C.ar    
  43 C43           -5.5319    -0.3202    -4.9729 C.ar    
  44 H44           -1.5143    -2.3155     0.9223 H       
  45 H45           -3.5078    -0.8805     0.8860 H       
  46 H46           -1.4271     1.9375    -1.5958 H       
  47 H47           -4.3598    -1.0538    -0.7965 H       
  48 H48           -5.4655    -0.9579     0.5983 H       
  49 H49           -3.6857     2.5557    -0.4502 H       
  50 H50           -8.5393    -0.3363    -1.4374 H       
  51 H51           -7.9688    -0.7481     0.1986 H       
  52 H52           -9.1068     0.7501    -2.5355 H       
  53 H53           -9.4586     1.6249     1.3717 H       
  54 H54          -10.4218     2.7274     0.3593 H       
  55 H55          -10.1868     1.0357    -0.1418 H       
  56 H56            1.2969    -1.9902    -2.3941 H       
  57 H57            1.0636    -2.2283     1.8489 H       
  58 H58            3.0188    -4.8706     1.3995 H       
  59 H59            4.3689    -3.8829     0.7912 H       
  60 H60            3.4690    -3.3660     2.2373 H       
  61 H61           -9.6668     1.4767    -4.8202 H       
  62 H62           -9.1234     5.5474    -3.6550 H       
  63 H63           -8.5690     4.8173    -1.3700 H       
  64 H64           -0.0392     1.7653    -3.1536 H       
  65 H65            0.5454     2.6150    -1.7030 H       
  66 H66            2.8841     2.0892    -2.3373 H       
  67 H67            2.2996     1.2395    -3.7880 H       
  68 H68            3.0049     3.5528    -4.3353 H       
  69 H69            1.2575     3.3387    -4.5978 H       
  70 H70            1.8420     4.1885    -3.1471 H       
  71 H71           -5.5414    -3.9522    -2.4389 H       
  72 H72           -4.5218    -2.5841    -1.9230 H       
  73 H73           -6.6038    -2.8255    -0.5228 H       
  74 H74           -7.5786    -2.5380    -1.9875 H       
  75 H75           -6.6713     1.7619    -1.9515 H       
  76 H76           -6.2562     2.8577    -4.1131 H       
  77 H77           -5.5228     1.5239    -6.0499 H       
  78 H78           -5.2102    -0.9037    -5.8227 H       
@<TRIPOS>BOND
   1    1    2 ar
   2    1   31 1
   3    1    6 ar
   4    2    3 ar
   5    2   20 1
   6    3    4 ar
   7    3   44 1
   8    4    5 ar
   9    4   45 1
  10    5    6 ar
  11    5    9 1
  12    6   46 1
  13    7    8 1
  14    7   10 1
  15    7   47 1
  16    7   48 1
  17    8    9 2
  18    8   13 1
  19    9   49 1
  20   10   11 1
  21   10   35 1
  22   10   39 1
  23   11   12 1
  24   11   50 1
  25   11   51 1
  26   12   13 1
  27   12   14 1
  28   13   16 2
  29   14   15 1
  30   14   17 1
  31   14   19 1
  32   15   16 1
  33   17   18 ar
  34   17   29 ar
  35   18   26 ar
  36   18   52 1
  37   19   53 1
  38   19   54 1
  39   19   55 1
  40   20   21 1
  41   20   22 1
  42   21   24 2
  43   21   56 1
  44   22   23 2
  45   22   57 1
  46   23   24 1
  47   23   25 1
  48   25   58 1
  49   25   59 1
  50   25   60 1
  51   26   27 ar
  52   26   61 1
  53   27   28 ar
  54   27   30 1
  55   28   29 ar
  56   28   62 1
  57   29   63 1
  58   31   32 1
  59   32   33 1
  60   32   64 1
  61   32   65 1
  62   33   34 1
  63   33   66 1
  64   33   67 1
  65   34   68 1
  66   34   69 1
  67   34   70 1
  68   35   36 ar
  69   35   40 ar
  70   36   37 1
  71   36   43 ar
  72   37   38 1
  73   38   39 1
  74   38   71 1
  75   38   72 1
  76   39   73 1
  77   39   74 1
  78   40   41 ar
  79   40   75 1
  80   41   42 ar
  81   41   76 1
  82   42   43 ar
  83   42   77 1
  84   43   78 1

#	End of record

