#	Name: ASD00960185
#	Creating user name:	WinNT
#	Creation time:	15. 06. 2019 18:53

#	Modifying user name:	WinNT
#	Modification time:	15. 06. 2019 18:53

#	Program:	/corina/corina34_cracker 3.40 0067  02.08.2006

@<TRIPOS>MOLECULE
ASD00960185
  38   41    0    0    0
SMALL
NO_CHARGES


@<TRIPOS>ATOM
   1 C1            -0.0168     1.3882     0.0097 C.2     
   2 C2             0.0021    -0.0041     0.0020 C.2     
   3 N3             1.2759     1.8328    -0.0003 N.pl3   
   4 C4             2.1097     0.7441    -0.0141 C.2     
   5 C5             1.3262    -0.4037    -0.0128 C.2     
   6 N6             1.8445     3.1141     0.0008 N.2     
   7 C7             3.1534     3.2524    -0.0114 C.2     
   8 N8             3.9752     2.1959    -0.0249 N.2     
   9 C9             3.5100     0.9610    -0.0267 C.2     
  10 N10            4.3804    -0.1109    -0.0409 N.pl3   
  11 C11            3.7325     4.6135    -0.0105 C.2     
  12 N12            5.0586     4.9465    -0.0219 N.pl3   
  13 N13            5.1464     6.2306    -0.0174 N.2     
  14 N14            3.9766     6.7631    -0.0039 N.2     
  15 C15            3.0527     5.7997    -0.0043 C.2     
  16 C16           -1.1769     2.2043     0.0199 C.2     
  17 O17           -2.2808     1.6924     0.0230 O.2     
  18 O18           -1.0564     3.5483     0.0261 O.3     
  19 C19           -2.2666     4.3082     0.0362 C.3     
  20 C20           -1.9365     5.7786     0.0420 C.ar    
  21 C21           -1.7913     6.4590    -1.1525 C.ar    
  22 C22           -1.4885     7.8078    -1.1472 C.ar    
  23 C23           -1.3313     8.4762     0.0525 C.ar    
  24 C24           -1.4773     7.7959     1.2470 C.ar    
  25 C25           -1.7844     6.4481     1.2418 C.ar    
  26 H26           -0.8605    -0.6539     0.0068 H       
  27 H27            1.6857    -1.4221    -0.0210 H       
  28 H28            5.3382     0.0422    -0.0496 H       
  29 H29            4.0341    -1.0169    -0.0422 H       
  30 H30            5.8026     4.3242    -0.0313 H       
  31 H31            1.9808     5.9311     0.0053 H       
  32 H32           -2.8522     4.0707    -0.8519 H       
  33 H33           -2.8429     4.0617     0.9280 H       
  34 H34           -1.9142     5.9368    -2.0899 H       
  35 H35           -1.3744     8.3393    -2.0805 H       
  36 H36           -1.0940     9.5298     0.0567 H       
  37 H37           -1.3542     8.3180     2.1844 H       
  38 H38           -1.9022     5.9174     2.1750 H       
@<TRIPOS>BOND
   1    1    2 2
   2    1    3 1
   3    1   16 1
   4    2    5 1
   5    2   26 1
   6    3    4 1
   7    3    6 1
   8    4    5 2
   9    4    9 1
  10    5   27 1
  11    6    7 2
  12    7    8 1
  13    7   11 1
  14    8    9 2
  15    9   10 1
  16   10   28 1
  17   10   29 1
  18   11   12 1
  19   11   15 2
  20   12   13 1
  21   12   30 1
  22   13   14 2
  23   14   15 1
  24   15   31 1
  25   16   17 2
  26   16   18 1
  27   18   19 1
  28   19   20 1
  29   19   32 1
  30   19   33 1
  31   20   21 ar
  32   20   25 ar
  33   21   22 ar
  34   21   34 1
  35   22   23 ar
  36   22   35 1
  37   23   24 ar
  38   23   36 1
  39   24   25 ar
  40   24   37 1
  41   25   38 1

#	End of record

