#	Name: ASD01140222
#	Creating user name:	WinNT
#	Creation time:	15. 06. 2019 19:00

#	Modifying user name:	WinNT
#	Modification time:	15. 06. 2019 19:00

#	Program:	/corina/corina34_cracker 3.40 0067  02.08.2006

@<TRIPOS>MOLECULE
ASD01140222
  37   40    0    0    0
SMALL
NO_CHARGES


@<TRIPOS>ATOM
   1 C1            -0.0894     1.3790     0.3635 C.2     
   2 C2            -0.0887     0.0357     0.3694 C.2     
   3 C3             2.7252     0.2697     0.1576 C.3     
   4 C4             2.3133     1.6956     0.1368 C.2     
   5 C5             3.7802    -0.0615     1.1387 C.2     
   6 N6             4.5701     0.6114     1.8421 N.2     
   7 C7             4.5589     2.0429     2.0988 C.3     
   8 C8             4.3877     2.8119     0.8156 C.2     
   9 N9             3.3230     2.6549    -0.0151 N.pl3   
  10 C10            3.4789     3.5654    -1.0058 C.2     
  11 N11            5.1590     3.7162     0.2926 N.2     
  12 N12            4.6172     4.1748    -0.7839 N.2     
  13 C13           -1.3401    -0.6488     0.4967 C.1     
  14 C14           -2.3660    -1.2100     0.6010 C.1     
  15 C15            2.5267     3.8266    -2.1443 C.3     
  16 C16            3.9393    -1.5147     1.3352 C.ar    
  17 C17            3.6342    -2.0937     2.5688 C.ar    
  18 C18            3.7853    -3.4531     2.7457 C.ar    
  19 C19            4.2381    -4.2449     1.7048 C.ar    
  20 C20            4.5428    -3.6810     0.4796 C.ar    
  21 C21            4.3911    -2.3209     0.2849 C.ar    
  22 S22            1.3736    -0.9145     0.2279 S.3     
  23 C23            1.0680     2.1496     0.2373 C.2     
  24 F24            4.6890    -1.7702    -0.9123 F       
  25 H25           -1.0361     1.8902     0.4571 H       
  26 H26            3.1860     0.0957    -0.8148 H       
  27 H27            3.7356     2.2806     2.7724 H       
  28 H28            5.4999     2.3311     2.5673 H       
  29 H29           -3.2835    -1.7119     0.6943 H       
  30 H30            1.8094     4.5926    -1.8495 H       
  31 H31            3.0864     4.1687    -3.0148 H       
  32 H32            1.9957     2.9075    -2.3920 H       
  33 H33            3.2810    -1.4781     3.3829 H       
  34 H34            3.5498    -3.9011     3.6997 H       
  35 H35            4.3544    -5.3087     1.8504 H       
  36 H36            4.8961    -4.3051    -0.3280 H       
  37 H37            0.9385     3.2217     0.2190 H       
@<TRIPOS>BOND
   1    1    2 2
   2    1   23 1
   3    1   25 1
   4    2   13 1
   5    2   22 1
   6    3    4 1
   7    3    5 1
   8    3   22 1
   9    3   26 1
  10    4   23 2
  11    4    9 1
  12    5    6 2
  13    5   16 1
  14    6    7 1
  15    7    8 1
  16    7   27 1
  17    7   28 1
  18    8    9 1
  19    8   11 2
  20    9   10 1
  21   10   15 1
  22   10   12 2
  23   11   12 1
  24   13   14 3
  25   14   29 1
  26   15   30 1
  27   15   31 1
  28   15   32 1
  29   16   17 ar
  30   16   21 ar
  31   17   18 ar
  32   17   33 1
  33   18   19 ar
  34   18   34 1
  35   19   20 ar
  36   19   35 1
  37   20   21 ar
  38   20   36 1
  39   21   24 1
  40   23   37 1

#	End of record

