#	Name: ASD03241006
#	Creating user name:	WinNT
#	Creation time:	15. 06. 2019 20:35

#	Modifying user name:	WinNT
#	Modification time:	15. 06. 2019 20:35

#	Program:	/corina/corina34_cracker 3.40 0067  02.08.2006

@<TRIPOS>MOLECULE
ASD03241006
  64   69    0    0    0
SMALL
NO_CHARGES


@<TRIPOS>ATOM
   1 C1            -0.0188     1.5336     0.0105 C.3     
   2 C2             0.0021    -0.0041     0.0020 C.3     
   3 C3             1.3815     0.0967    -0.6702 C.3     
   4 C4             1.5179     1.4762    -0.0045 C.3     
   5 O5            -0.5818     2.1049    -1.1721 O.3     
   6 C6             2.3746    -0.9181    -0.1653 C.ar    
   7 C7             3.3681    -1.3872    -1.0061 C.ar    
   8 C8             4.2807    -2.3160    -0.5495 C.ar    
   9 C9             4.2000    -2.7820     0.7628 C.ar    
  10 C10            3.1960    -2.3051     1.6056 C.ar    
  11 C11            2.2926    -1.3725     1.1389 C.ar    
  12 N12            6.9391    -6.5640    -0.0648 N.pl3   
  13 C13            7.8397    -7.5201     0.3094 C.2     
  14 N14            8.3158    -7.5603     1.5585 N.2     
  15 C15            7.9597    -6.7031     2.4934 C.2     
  16 C16            7.0032    -5.6489     2.1799 C.ar    
  17 C17            6.5334    -4.6743     3.0614 C.ar    
  18 C18            5.6104    -3.7310     2.5913 C.ar    
  19 C19            5.1753    -3.7785     1.2586 C.ar    
  20 N20            5.6348    -4.7115     0.4456 N.ar    
  21 C21            6.5063    -5.6202     0.8470 C.ar    
  22 C22            8.0768    -8.3104    -0.8062 C.2     
  23 C23            7.3046    -7.8104    -1.8476 C.2     
  24 N24            6.6272    -6.7742    -1.4143 N.2     
  25 C25            5.1002    -2.6882     3.5136 C.ar    
  26 C26            5.3946    -1.3454     3.2829 C.ar    
  27 C27            4.9166    -0.3791     4.1445 C.ar    
  28 C28            4.1467    -0.7409     5.2353 C.ar    
  29 C29            3.8517    -2.0720     5.4695 C.ar    
  30 C30            4.3195    -3.0465     4.6114 C.ar    
  31 C31            6.9358    -4.5392     4.5094 C.3     
  32 C32            8.6047    -6.9101     3.8401 C.3     
  33 C33            7.2535    -8.3682    -3.2466 C.3     
  34 C34           -0.5973     2.1316     1.2944 C.3     
  35 N35            1.3186     0.1546    -2.1367 N.3     
  36 H36            0.0329    -0.4458     0.9980 H       
  37 H37           -0.7629    -0.4476    -0.6353 H       
  38 H38            1.9766     2.2276    -0.6471 H       
  39 H39            1.9632     1.4391     0.9897 H       
  40 H40           -0.5977     3.0718    -1.1727 H       
  41 H41            3.4293    -1.0259    -2.0220 H       
  42 H42            5.0555    -2.6817    -1.2070 H       
  43 H43            3.1282    -2.6625     2.6226 H       
  44 H44            1.5173    -0.9995     1.7917 H       
  45 H45            8.7412    -9.1602    -0.8571 H       
  46 H46            5.9959    -1.0617     2.4318 H       
  47 H47            5.1443     0.6616     3.9669 H       
  48 H48            3.7747     0.0187     5.9069 H       
  49 H49            3.2508    -2.3488     6.3231 H       
  50 H50            4.0849    -4.0850     4.7927 H       
  51 H51            7.8060    -3.8873     4.5853 H       
  52 H52            6.1101    -4.1107     5.0774 H       
  53 H53            7.1819    -5.5220     4.9113 H       
  54 H54            9.2766    -7.7672     3.7932 H       
  55 H55            9.1707    -6.0193     4.1126 H       
  56 H56            7.8334    -7.0935     4.5881 H       
  57 H57            6.4688    -9.1222    -3.3086 H       
  58 H58            7.0411    -7.5638    -3.9508 H       
  59 H59            8.2137    -8.8219    -3.4921 H       
  60 H60            0.0010     1.8098     2.1469 H       
  61 H61           -0.5800     3.2195     1.2285 H       
  62 H62           -1.6249     1.7917     1.4227 H       
  63 H63            2.2430     0.2199    -2.5360 H       
  64 H64            0.8193    -0.6393    -2.5089 H       
@<TRIPOS>BOND
   1    1    2 1
   2    1    4 1
   3    1    5 1
   4    1   34 1
   5    2    3 1
   6    2   36 1
   7    2   37 1
   8    3    4 1
   9    3    6 1
  10    3   35 1
  11    4   38 1
  12    4   39 1
  13    5   40 1
  14    6    7 ar
  15    6   11 ar
  16    7    8 ar
  17    7   41 1
  18    8    9 ar
  19    8   42 1
  20    9   10 ar
  21    9   19 1
  22   10   11 ar
  23   10   43 1
  24   11   44 1
  25   12   13 1
  26   12   21 1
  27   12   24 1
  28   13   14 1
  29   13   22 2
  30   14   15 2
  31   15   16 1
  32   15   32 1
  33   16   17 ar
  34   16   21 ar
  35   17   18 ar
  36   17   31 1
  37   18   19 ar
  38   18   25 1
  39   19   20 ar
  40   20   21 ar
  41   22   23 1
  42   22   45 1
  43   23   24 2
  44   23   33 1
  45   25   26 ar
  46   25   30 ar
  47   26   27 ar
  48   26   46 1
  49   27   28 ar
  50   27   47 1
  51   28   29 ar
  52   28   48 1
  53   29   30 ar
  54   29   49 1
  55   30   50 1
  56   31   51 1
  57   31   52 1
  58   31   53 1
  59   32   54 1
  60   32   55 1
  61   32   56 1
  62   33   57 1
  63   33   58 1
  64   33   59 1
  65   34   60 1
  66   34   61 1
  67   34   62 1
  68   35   63 1
  69   35   64 1

#	End of record

