#	Name: ASD01917211
#	Creating user name:	WinNT
#	Creation time:	15. 06. 2019 20:08

#	Modifying user name:	WinNT
#	Modification time:	15. 06. 2019 20:08

#	Program:	/corina/corina34_cracker 3.40 0067  02.08.2006

@<TRIPOS>MOLECULE
ASD01917211
  43   46    0    0    0
SMALL
NO_CHARGES


@<TRIPOS>ATOM
   1 C1            -0.0581     1.4492     0.0974 C.2     
   2 C2            -0.0178    -0.0223     0.0989 C.2     
   3 N3             1.0973     2.1902    -0.0129 N.pl3   
   4 N4             1.2088    -0.5895     0.1921 N.am    
   5 C5             2.3932     0.1936     0.5267 C.3     
   6 C6             2.4091     1.5579    -0.1632 C.3     
   7 N7             0.7439     3.5324     0.0366 N.2     
   8 C8            -0.5651     3.6188     0.1552 C.2     
   9 C9            -1.1002     2.3240     0.1971 C.2     
  10 O10           -1.0301    -0.6919     0.0210 O.2     
  11 C11            1.3565    -4.1182     0.7508 C.ar    
  12 N12            1.2304    -2.8189     0.9652 N.ar    
  13 C13            1.3423    -1.9532    -0.0366 C.ar    
  14 C14            1.5956    -2.4343    -1.3220 C.ar    
  15 C15            1.7202    -3.7984    -1.5017 C.ar    
  16 N16            1.5966    -4.6032    -0.4564 N.ar    
  17 O17            1.2424    -4.9735     1.7950 O.3     
  18 C18            1.3866    -6.3666     1.5112 C.3     
  19 O19           -1.2793     4.7738     0.2285 O.3     
  20 C20           -0.5426     5.9969     0.1709 C.3     
  21 C21           -1.4943     7.1615     0.2657 C.ar    
  22 C22           -1.8229     7.6868     1.5014 C.ar    
  23 C23           -2.6959     8.7550     1.5884 C.ar    
  24 C24           -3.2400     9.2983     0.4396 C.ar    
  25 C25           -2.9107     8.7736    -0.7962 C.ar    
  26 C26           -2.0343     7.7082    -0.8834 C.ar    
  27 H27            2.4229     0.3438     1.6059 H       
  28 H28            3.2804    -0.3636     0.2260 H       
  29 H29            2.6314     1.4280    -1.2223 H       
  30 H30            3.1715     2.1881     0.2947 H       
  31 H31           -2.1449     2.0663     0.2904 H       
  32 H32            1.6915    -1.7559    -2.1569 H       
  33 H33            1.9159    -4.2043    -2.4832 H       
  34 H34            2.3741    -6.5509     1.0882 H       
  35 H35            1.2733    -6.9386     2.4321 H       
  36 H36            0.6224    -6.6729     0.7969 H       
  37 H37            0.1628     6.0356     1.0010 H       
  38 H38            0.0024     6.0488    -0.7717 H       
  39 H39           -1.3978     7.2623     2.3989 H       
  40 H40           -2.9532     9.1650     2.5539 H       
  41 H41           -3.9226    10.1325     0.5076 H       
  42 H42           -3.3360     9.1979    -1.6937 H       
  43 H43           -1.7741     7.3006    -1.8492 H       
@<TRIPOS>BOND
   1    1    2 1
   2    1    3 1
   3    1    9 2
   4    2    4 am
   5    2   10 2
   6    3    6 1
   7    3    7 1
   8    4    5 1
   9    4   13 1
  10    5    6 1
  11    5   27 1
  12    5   28 1
  13    6   29 1
  14    6   30 1
  15    7    8 2
  16    8    9 1
  17    8   19 1
  18    9   31 1
  19   11   12 ar
  20   11   16 ar
  21   11   17 1
  22   12   13 ar
  23   13   14 ar
  24   14   15 ar
  25   14   32 1
  26   15   16 ar
  27   15   33 1
  28   17   18 1
  29   18   34 1
  30   18   35 1
  31   18   36 1
  32   19   20 1
  33   20   21 1
  34   20   37 1
  35   20   38 1
  36   21   22 ar
  37   21   26 ar
  38   22   23 ar
  39   22   39 1
  40   23   24 ar
  41   23   40 1
  42   24   25 ar
  43   24   41 1
  44   25   26 ar
  45   25   42 1
  46   26   43 1

#	End of record

