#	Name: ASD01910123
#	Creating user name:	WinNT
#	Creation time:	15. 06. 2019 19:55

#	Modifying user name:	WinNT
#	Modification time:	15. 06. 2019 19:55

#	Program:	/corina/corina34_cracker 3.40 0067  02.08.2006

@<TRIPOS>MOLECULE
ASD01910123
  48   51    0    0    0
SMALL
NO_CHARGES


@<TRIPOS>ATOM
   1 C1            -0.1231     0.5049    -0.3974 C.ar    
   2 C2            -0.3163    -0.8620    -0.4587 C.ar    
   3 C3            -1.5952    -1.3944    -0.3999 C.ar    
   4 C4            -2.6860    -0.5493    -0.2783 C.ar    
   5 C5            -2.4889     0.8453    -0.2153 C.ar    
   6 C6            -1.2051     1.3627    -0.2704 C.ar    
   7 C7            -4.1469    -0.7556    -0.1891 C.2     
   8 N8            -4.7437     0.4453    -0.0820 N.am    
   9 C9            -3.8368     1.4389    -0.0899 C.2     
  10 C10           -6.1909     0.6449     0.0278 C.3     
  11 C11           -6.6119     0.4873     1.4662 C.ar    
  12 C12           -6.4904     1.5541     2.3469 C.ar    
  13 C13           -6.8800     1.4053     3.6719 C.ar    
  14 C14           -7.3868     0.1979     4.1098 C.ar    
  15 C15           -7.5068    -0.8636     3.2299 C.ar    
  16 C16           -7.1245    -0.7167     1.9085 C.ar    
  17 N17           -5.9763     2.7759     1.9007 N.am    
  18 C18           -5.4533     3.6497     2.7836 C.2     
  19 C19           -5.0162     4.9899     2.3288 C.ar    
  20 O20           -5.3403     3.3379     3.9527 O.2     
  21 O21           -4.0842     2.6251    -0.0081 O.2     
  22 O22           -4.7138    -1.8295    -0.2096 O.2     
  23 Br23          -8.2007    -2.5158     3.8335 Br      
  24 C24           -4.4765     5.8885     3.2461 C.ar    
  25 C25           -4.0719     7.1390     2.8056 C.ar    
  26 C26           -4.2214     7.4471     1.4627 C.ar    
  27 C27           -4.7666     6.5039     0.6058 C.ar    
  28 N28           -5.1371     5.3227     1.0493 N.ar    
  29 C29            1.2736     1.0669    -0.4627 C.3     
  30 C30            0.8712    -1.7803    -0.5909 C.3     
  31 H31           -1.7403    -2.4635    -0.4490 H       
  32 H32           -1.0481     2.4302    -0.2222 H       
  33 H33           -6.4468     1.6464    -0.3180 H       
  34 H34           -6.7071    -0.0941    -0.5849 H       
  35 H35           -6.7862     2.2332     4.3591 H       
  36 H36           -7.6895     0.0815     5.1399 H       
  37 H37           -7.2196    -1.5466     1.2239 H       
  38 H38           -5.9961     2.9944     0.9558 H       
  39 H39           -4.3749     5.6149     4.2860 H       
  40 H40           -3.6502     7.8570     3.4933 H       
  41 H41           -3.9164     8.4128     1.0875 H       
  42 H42           -4.8845     6.7407    -0.4413 H       
  43 H43            1.5401     1.2583    -1.5021 H       
  44 H44            1.3171     1.9988     0.1010 H       
  45 H45            1.9741     0.3501    -0.0341 H       
  46 H46            1.2283    -2.0577     0.4009 H       
  47 H47            0.5777    -2.6777    -1.1355 H       
  48 H48            1.6667    -1.2698    -1.1338 H       
@<TRIPOS>BOND
   1    1    2 ar
   2    1   29 1
   3    1    6 ar
   4    2    3 ar
   5    2   30 1
   6    3    4 ar
   7    3   31 1
   8    4    5 ar
   9    4    7 1
  10    5    6 ar
  11    5    9 1
  12    6   32 1
  13    7    8 am
  14    7   22 2
  15    8    9 am
  16    8   10 1
  17    9   21 2
  18   10   11 1
  19   10   33 1
  20   10   34 1
  21   11   12 ar
  22   11   16 ar
  23   12   13 ar
  24   12   17 1
  25   13   14 ar
  26   13   35 1
  27   14   15 ar
  28   14   36 1
  29   15   16 ar
  30   15   23 1
  31   16   37 1
  32   17   18 am
  33   17   38 1
  34   18   19 1
  35   18   20 2
  36   19   24 ar
  37   19   28 ar
  38   24   25 ar
  39   24   39 1
  40   25   26 ar
  41   25   40 1
  42   26   27 ar
  43   26   41 1
  44   27   28 ar
  45   27   42 1
  46   29   43 1
  47   29   44 1
  48   29   45 1
  49   30   46 1
  50   30   47 1
  51   30   48 1

#	End of record

