#	Name: ASD01870732
#	Creating user name:	WinNT
#	Creation time:	15. 06. 2019 19:39

#	Modifying user name:	WinNT
#	Modification time:	15. 06. 2019 19:39

#	Program:	/corina/corina34_cracker 3.40 0067  02.08.2006

@<TRIPOS>MOLECULE
ASD01870732
  44   48    0    0    0
SMALL
NO_CHARGES


@<TRIPOS>ATOM
   1 O1             2.2005     1.5573    -0.0106 O.2     
   2 N2            -0.0178     1.4608     0.0101 N.am    
   3 N3            -0.0362     4.2727     0.0254 N.ar    
   4 N4             2.3321     5.6592     0.0093 N.ar    
   5 C5             0.0021    -0.0041     0.0020 C.3     
   6 C6            -1.4126    -2.0635     0.0045 C.3     
   7 C7             0.7390    -2.0273    -1.2652 C.3     
   8 C8             0.7628    -2.0407     1.2331 C.3     
   9 C9            -1.4333    -0.5336     0.0129 C.3     
  10 C10            0.7182    -0.4975    -1.2568 C.3     
  11 C11            0.7421    -0.5109     1.2415 C.3     
  12 C12           -0.6964    -2.5569    -1.2543 C.3     
  13 C13           -0.6726    -2.5703     1.2440 C.3     
  14 C14            1.4790    -2.5342    -0.0257 C.3     
  15 C15            1.1401     2.1505     0.0027 C.2     
  16 C16            1.1200     3.6326     0.0109 C.ar    
  17 C17            2.3309     4.3467     0.0027 C.ar    
  18 C18           -0.0530     5.6060     0.0322 C.ar    
  19 C19            1.1719     6.3252     0.0239 C.ar    
  20 C20           -1.2684     6.3163     0.0481 C.ar    
  21 C21            1.1438     7.7300     0.0318 C.ar    
  22 C22           -1.2540     7.6765     0.0553 C.ar    
  23 C23           -0.0511     8.3816     0.0471 C.ar    
  24 H24            1.2492    -2.3788    -2.1620 H       
  25 H25           -2.4352    -2.4408     0.0122 H       
  26 H26            1.2900    -2.4018     2.1162 H       
  27 H27           -1.9435    -0.1821     0.9097 H       
  28 H28           -1.9605    -0.1726    -0.8702 H       
  29 H29            0.1910    -0.1364    -2.1398 H       
  30 H30            1.7408    -0.1202    -1.2645 H       
  31 H31            1.7647    -0.1336     1.2338 H       
  32 H32            0.2319    -0.1594     2.1383 H       
  33 H33           -0.6816    -3.6468    -1.2603 H       
  34 H34           -1.2236    -2.1958    -2.1374 H       
  35 H35           -1.1828    -2.2188     2.1408 H       
  36 H36           -0.6578    -3.6602     1.2380 H       
  37 H37            1.4937    -3.6240    -0.0317 H       
  38 H38            2.5015    -2.1569    -0.0334 H       
  39 H39           -0.8643     1.9343     0.0167 H       
  40 H40            3.2684     3.8106    -0.0095 H       
  41 H41           -2.2079     5.7838     0.0542 H       
  42 H42            2.0669     8.2906     0.0260 H       
  43 H43           -2.1881     8.2183     0.0671 H       
  44 H44           -0.0677     9.4615     0.0531 H       
@<TRIPOS>BOND
   1    1   15 2
   2    2    5 1
   3    2   15 am
   4    2   39 1
   5    3   16 ar
   6    3   18 ar
   7    4   17 ar
   8    4   19 ar
   9    5    9 1
  10    5   10 1
  11    5   11 1
  12    6    9 1
  13    6   12 1
  14    6   13 1
  15    6   25 1
  16    7   10 1
  17    7   12 1
  18    7   14 1
  19    7   24 1
  20    8   11 1
  21    8   13 1
  22    8   14 1
  23    8   26 1
  24    9   27 1
  25    9   28 1
  26   10   29 1
  27   10   30 1
  28   11   31 1
  29   11   32 1
  30   12   33 1
  31   12   34 1
  32   13   35 1
  33   13   36 1
  34   14   37 1
  35   14   38 1
  36   15   16 1
  37   16   17 ar
  38   17   40 1
  39   18   19 ar
  40   18   20 ar
  41   19   21 ar
  42   20   22 ar
  43   20   41 1
  44   21   23 ar
  45   21   42 1
  46   22   23 ar
  47   22   43 1
  48   23   44 1

#	End of record

