#	Name: ASD01208621
#	Creating user name:	WinNT
#	Creation time:	15. 06. 2019 19:10

#	Modifying user name:	WinNT
#	Modification time:	15. 06. 2019 19:10

#	Program:	/corina/corina34_cracker 3.40 0067  02.08.2006

@<TRIPOS>MOLECULE
ASD01208621
  79   80    0    0    0
SMALL
NO_CHARGES


@<TRIPOS>ATOM
   1 N1            -0.9176     3.7558    -0.6134 N.pl3   
   2 C2            -1.4354     2.4849    -0.5030 C.2     
   3 C3            -0.3828     1.6095    -0.3257 C.2     
   4 C4             0.7907     2.3614    -0.3287 C.2     
   5 C5             0.4403     3.6822    -0.5073 C.2     
   6 C6            -2.8551     2.1245    -0.5632 C.2     
   7 O7            -3.1926     0.9604    -0.4522 O.2     
   8 N8            -3.7865     3.0822    -0.7413 N.am    
   9 C9             1.3764     4.8244    -0.5727 C.ar    
  10 C10            0.8890     6.1189    -0.7581 C.ar    
  11 C11            1.7694     7.1860    -0.8188 C.ar    
  12 C12            3.1346     6.9696    -0.6961 C.ar    
  13 C13            3.6234     5.6845    -0.5117 C.ar    
  14 C14            2.7492     4.6121    -0.4435 C.ar    
  15 O15            4.9613     5.4780    -0.3921 O.3     
  16 Si16           5.4822     5.3805     1.1505 Si      
  17 C17            7.3444     5.4269     1.1812 C.3     
  18 C18            7.8960     4.4518     0.1392 C.3     
  19 C19            7.8246     6.8433     0.8589 C.3     
  20 C20            4.8090     6.8183     2.1253 C.3     
  21 C21            3.3381     6.5633     2.4604 C.3     
  22 C22            5.6076     6.9745     3.4210 C.3     
  23 C23            4.8881     3.7849     1.9068 C.3     
  24 C24            5.3002     2.6128     1.0139 C.3     
  25 C25            5.5126     3.6141     3.2931 C.3     
  26 O26            1.2958     8.4470    -0.9993 O.3     
  27 C27           -0.1066     8.5855    -1.2365 C.3     
  28 C28           -0.3687     9.8854    -1.9998 C.3     
  29 C29           -0.8490     8.6207     0.1008 C.3     
  30 O30           -0.0123    10.9997    -1.1793 O.3     
  31 C31           -0.2197    12.2694    -1.8013 C.3     
  32 C32           -5.2052     2.7220    -0.8014 C.3     
  33 C33           -6.0437     3.9850    -1.0084 C.3     
  34 C34           -7.5254     3.6089    -1.0712 C.3     
  35 O35           -5.8263     4.8847     0.0803 O.3     
  36 H36           -1.4320     4.5671    -0.7483 H       
  37 H37           -0.4553     0.5386    -0.2062 H       
  38 H38            1.7936     1.9782    -0.2118 H       
  39 H39           -3.5174     4.0099    -0.8297 H       
  40 H40           -0.1733     6.2881    -0.8544 H       
  41 H41            3.8185     7.8041    -0.7446 H       
  42 H42            3.1302     3.6124    -0.2955 H       
  43 H43            7.6987     5.1395     2.1711 H       
  44 H44            8.9849     4.5022     0.1350 H       
  45 H45            7.5801     3.4384     0.3867 H       
  46 H46            7.5161     4.7202    -0.8466 H       
  47 H47            7.4316     7.5380     1.6012 H       
  48 H48            8.9142     6.8704     0.8768 H       
  49 H49            7.4703     7.1306    -0.1311 H       
  50 H50            4.8942     7.7299     1.5339 H       
  51 H51            2.9157     7.4474     2.9379 H       
  52 H52            2.7888     6.3478     1.5440 H       
  53 H53            3.2620     5.7130     3.1381 H       
  54 H54            6.6716     7.0203     3.1887 H       
  55 H55            5.3060     7.8926     3.9252 H       
  56 H56            5.4142     6.1220     4.0720 H       
  57 H57            3.8022     3.8081     1.9978 H       
  58 H58            6.3821     2.4868     1.0559 H       
  59 H59            4.8145     1.7017     1.3633 H       
  60 H60            4.9975     2.8148    -0.0136 H       
  61 H61            6.5963     3.7021     3.2168 H       
  62 H62            5.1314     4.3867     3.9610 H       
  63 H63            5.2548     2.6319     3.6892 H       
  64 H64           -0.4605     7.7401    -1.8265 H       
  65 H65            0.2296     9.8988    -2.9108 H       
  66 H66           -1.4258     9.9480    -2.2584 H       
  67 H67           -1.9187     8.7264    -0.0802 H       
  68 H68           -0.6623     7.6947     0.6445 H       
  69 H69           -0.4951     9.4662     0.6907 H       
  70 H70            0.3818    12.3323    -2.7082 H       
  71 H71           -1.2736    12.3815    -2.0558 H       
  72 H72            0.0746    13.0629    -1.1144 H       
  73 H73           -5.3710     2.0358    -1.6319 H       
  74 H74           -5.4977     2.2406     0.1317 H       
  75 H75           -5.7512     4.4665    -1.9415 H       
  76 H76           -8.1227     4.5086    -1.2186 H       
  77 H77           -7.6912     2.9226    -1.9016 H       
  78 H78           -7.8179     3.1274    -0.1380 H       
  79 H79           -6.3275     5.7092     0.0153 H       
@<TRIPOS>BOND
   1    1    2 1
   2    1    5 1
   3    1   36 1
   4    2    3 2
   5    2    6 1
   6    3    4 1
   7    3   37 1
   8    4    5 2
   9    4   38 1
  10    5    9 1
  11    6    7 2
  12    6    8 am
  13    8   32 1
  14    8   39 1
  15    9   10 ar
  16    9   14 ar
  17   10   11 ar
  18   10   40 1
  19   11   12 ar
  20   11   26 1
  21   12   13 ar
  22   12   41 1
  23   13   14 ar
  24   13   15 1
  25   14   42 1
  26   15   16 1
  27   16   17 1
  28   16   20 1
  29   16   23 1
  30   17   18 1
  31   17   19 1
  32   17   43 1
  33   18   44 1
  34   18   45 1
  35   18   46 1
  36   19   47 1
  37   19   48 1
  38   19   49 1
  39   20   21 1
  40   20   22 1
  41   20   50 1
  42   21   51 1
  43   21   52 1
  44   21   53 1
  45   22   54 1
  46   22   55 1
  47   22   56 1
  48   23   24 1
  49   23   25 1
  50   23   57 1
  51   24   58 1
  52   24   59 1
  53   24   60 1
  54   25   61 1
  55   25   62 1
  56   25   63 1
  57   26   27 1
  58   27   28 1
  59   27   29 1
  60   27   64 1
  61   28   30 1
  62   28   65 1
  63   28   66 1
  64   29   67 1
  65   29   68 1
  66   29   69 1
  67   30   31 1
  68   31   70 1
  69   31   71 1
  70   31   72 1
  71   32   33 1
  72   32   73 1
  73   32   74 1
  74   33   34 1
  75   33   35 1
  76   33   75 1
  77   34   76 1
  78   34   77 1
  79   34   78 1
  80   35   79 1

#	End of record

