#	Name: ASD03731474
#	Creating user name:	WinNT
#	Creation time:	15. 06. 2019 20:45

#	Modifying user name:	WinNT
#	Modification time:	15. 06. 2019 20:45

#	Program:	/corina/corina34_cracker 3.40 0067  02.08.2006

@<TRIPOS>MOLECULE
ASD03731474
  65   71    0    0    0
SMALL
NO_CHARGES


@<TRIPOS>ATOM
   1 O1            -0.0514     1.3763     0.0287 O.3     
   2 C2             0.0084    -0.0531    -0.0200 C.3     
   3 C3             1.0587    -0.5149     0.9986 C.3     
   4 N4             2.3681     0.0057     0.5895 N.3     
   5 C5             2.3323     1.3728     0.3278 C.ar    
   6 C6             1.1394     2.0369     0.0499 C.ar    
   7 C7             3.5319     2.0838     0.3466 C.ar    
   8 C8             3.5455     3.4352     0.0897 C.ar    
   9 C9             2.3519     4.1041    -0.1928 C.ar    
  10 C10            1.1480     3.3948    -0.2108 C.ar    
  11 C11            2.3623     5.5529    -0.4703 C.2     
  12 O12            1.3219     6.1324    -0.7158 O.2     
  13 N13            3.5251     6.2342    -0.4517 N.am    
  14 C14            3.5354     7.6730    -0.7273 C.3     
  15 C15            4.9701     8.1980    -0.6437 C.3     
  16 C16            4.9810     9.7006    -0.9315 C.3     
  17 O17           11.4421     6.6442    -1.7076 O.3     
  18 C18           12.8792     6.6952    -1.7810 C.3     
  19 O19           13.1417     7.9073    -2.5124 O.3     
  20 C20           12.0728     8.7212    -2.2674 C.ar    
  21 C21           11.0278     7.9437    -1.7735 C.ar    
  22 C22           11.9046    10.0849    -2.4275 C.ar    
  23 C23           10.6947    10.6894    -2.0998 C.ar    
  24 C24            9.6554     9.9011    -1.6152 C.ar    
  25 C25            9.8220     8.5421    -1.4486 C.ar    
  26 O26           10.3303    12.0021    -2.1646 O.3     
  27 C27            8.4891    10.8241    -1.3834 C.3     
  28 C28            8.8931    12.0980    -2.1380 C.3     
  29 N29            6.3547    10.2033    -0.8514 N.am    
  30 C30            7.2004    10.2522    -1.8999 C.2     
  31 C31            8.2512    11.0886     0.0738 C.ar    
  32 C32            9.0293    11.6027     1.0869 C.ar    
  33 C33            8.5111    11.7274     2.3636 C.ar    
  34 C34            7.2102    11.3337     2.6198 C.ar    
  35 C35            6.4272    10.8172     1.6086 C.ar    
  36 C36            6.9404    10.6885     0.3203 C.ar    
  37 O37            6.9662     9.9031    -3.0376 O.2     
  38 C38            3.3966    -0.3122     1.5890 C.3     
  39 H39           -0.9644    -0.4720     0.2373 H       
  40 H40            0.2972    -0.3763    -1.0201 H       
  41 H41            0.8043    -0.1305     1.9863 H       
  42 H42            1.0897    -1.6042     1.0239 H       
  43 H43            4.4565     1.5700     0.5647 H       
  44 H44            4.4785     3.9790     0.1066 H       
  45 H45            0.2230     3.9080    -0.4286 H       
  46 H46            4.3550     5.7719    -0.2559 H       
  47 H47            3.1399     7.8544    -1.7267 H       
  48 H48            2.9166     8.1882     0.0074 H       
  49 H49            5.3657     8.0166     0.3557 H       
  50 H50            5.5889     7.6829    -1.3784 H       
  51 H51            4.5854     9.8820    -1.9309 H       
  52 H52            4.3621    10.2158    -0.1968 H       
  53 H53           13.3120     6.7493    -0.7821 H       
  54 H54           13.2660     5.8309    -2.3208 H       
  55 H55           12.7177    10.6844    -2.8094 H       
  56 H56            9.0098     7.9430    -1.0642 H       
  57 H57            8.5745    12.9874    -1.5944 H       
  58 H58            8.4861    12.0945    -3.1491 H       
  59 H59           10.0450    11.9093     0.8845 H       
  60 H60            9.1208    12.1314     3.1582 H       
  61 H61            6.8057    11.4309     3.6165 H       
  62 H62            5.4124    10.5115     1.8166 H       
  63 H63            3.3810    -1.3817     1.7989 H       
  64 H64            4.3769    -0.0320     1.2034 H       
  65 H65            3.1953     0.2411     2.5062 H       
@<TRIPOS>BOND
   1    1    2 1
   2    1    6 1
   3    2    3 1
   4    2   39 1
   5    2   40 1
   6    3    4 1
   7    3   41 1
   8    3   42 1
   9    4    5 1
  10    4   38 1
  11    5    6 ar
  12    5    7 ar
  13    6   10 ar
  14    7    8 ar
  15    7   43 1
  16    8    9 ar
  17    8   44 1
  18    9   10 ar
  19    9   11 1
  20   10   45 1
  21   11   12 2
  22   11   13 am
  23   13   14 1
  24   13   46 1
  25   14   15 1
  26   14   47 1
  27   14   48 1
  28   15   16 1
  29   15   49 1
  30   15   50 1
  31   16   29 1
  32   16   51 1
  33   16   52 1
  34   17   18 1
  35   17   21 1
  36   18   19 1
  37   18   53 1
  38   18   54 1
  39   19   20 1
  40   20   21 ar
  41   20   22 ar
  42   21   25 ar
  43   22   23 ar
  44   22   55 1
  45   23   24 ar
  46   23   26 1
  47   24   25 ar
  48   24   27 1
  49   25   56 1
  50   26   28 1
  51   27   28 1
  52   27   30 1
  53   27   31 1
  54   28   57 1
  55   28   58 1
  56   29   30 am
  57   29   36 1
  58   30   37 2
  59   31   32 ar
  60   31   36 ar
  61   32   33 ar
  62   32   59 1
  63   33   34 ar
  64   33   60 1
  65   34   35 ar
  66   34   61 1
  67   35   36 ar
  68   35   62 1
  69   38   63 1
  70   38   64 1
  71   38   65 1

#	End of record

