#	Name: ASD01911935
#	Creating user name:	WinNT
#	Creation time:	15. 06. 2019 19:58

#	Modifying user name:	WinNT
#	Modification time:	15. 06. 2019 19:58

#	Program:	/corina/corina34_cracker 3.40 0067  02.08.2006

@<TRIPOS>MOLECULE
ASD01911935
  34   36    0    0    0
SMALL
NO_CHARGES


@<TRIPOS>ATOM
   1 C1             0.4120     0.1145    -1.8765 C.ar    
   2 C2            -0.0794     0.0132    -0.5789 C.ar    
   3 C3             0.6070     0.6679     0.4389 C.ar    
   4 N4             1.6946     1.3584     0.1388 N.ar    
   5 C5             2.1286     1.4305    -1.1035 C.ar    
   6 N6             1.5065     0.8246    -2.0948 N.ar    
   7 O7            -1.2011    -0.7063    -0.3124 O.3     
   8 C8            -1.0956    -2.0609    -0.2713 C.ar    
   9 C9            -2.2179    -2.8378    -0.0122 C.ar    
  10 C10           -2.1106    -4.2182     0.0298 C.ar    
  11 C11           -0.8858    -4.8253    -0.1862 C.ar    
  12 C12            0.2375    -4.0512    -0.4449 C.ar    
  13 C13            0.1304    -2.6679    -0.4934 C.ar    
  14 N14            1.4758    -4.6654    -0.6623 N.am    
  15 C15            1.5339    -5.8720    -1.2600 C.2     
  16 C16            2.8328    -6.5684    -1.3966 C.ar    
  17 O17            0.5197    -6.3882    -1.6868 O.2     
  18 C18            2.8855    -7.8159    -2.0156 C.ar    
  19 F19           -3.2026    -4.9726     0.2823 F       
  20 C20            4.1075    -8.4563    -2.1372 C.ar    
  21 C21            5.2381    -7.8260    -1.6344 C.ar    
  22 C22            5.1105    -6.5821    -1.0294 C.ar    
  23 N23            3.9379    -5.9964    -0.9330 N.ar    
  24 F24           -3.4141    -2.2468     0.1993 F       
  25 F25            6.4492    -8.4166    -1.7322 F       
  26 H26           -0.0903    -0.3830    -2.6929 H       
  27 H27            0.2567     0.6133     1.4591 H       
  28 H28            3.0199     2.0026    -1.3153 H       
  29 H29           -0.8036    -5.9017    -0.1531 H       
  30 H30            1.0034    -2.0649    -0.6949 H       
  31 H31            2.2925    -4.2227    -0.3830 H       
  32 H32            1.9856    -8.2771    -2.3951 H       
  33 H33            4.1793    -9.4237    -2.6118 H       
  34 H34            5.9869    -6.0881    -0.6365 H       
@<TRIPOS>BOND
   1    1    2 ar
   2    1    6 ar
   3    1   26 1
   4    2    3 ar
   5    2    7 1
   6    3    4 ar
   7    3   27 1
   8    4    5 ar
   9    5    6 ar
  10    5   28 1
  11    7    8 1
  12    8    9 ar
  13    8   13 ar
  14    9   10 ar
  15    9   24 1
  16   10   11 ar
  17   10   19 1
  18   11   12 ar
  19   11   29 1
  20   12   13 ar
  21   12   14 1
  22   13   30 1
  23   14   15 am
  24   14   31 1
  25   15   16 1
  26   15   17 2
  27   16   18 ar
  28   16   23 ar
  29   18   20 ar
  30   18   32 1
  31   20   21 ar
  32   20   33 1
  33   21   22 ar
  34   21   25 1
  35   22   23 ar
  36   22   34 1

#	End of record

