#	Name: ASD00310387
#	Creating user name:	WinNT
#	Creation time:	15. 06. 2019 18:34

#	Modifying user name:	WinNT
#	Modification time:	15. 06. 2019 18:34

#	Program:	/corina/corina34_cracker 3.40 0067  02.08.2006

@<TRIPOS>MOLECULE
ASD00310387
  45   48    0    0    0
SMALL
NO_CHARGES


@<TRIPOS>ATOM
   1 N1            -0.0163     1.3498     0.0095 N.pl3   
   2 C2             0.0021    -0.0041     0.0020 C.2     
   3 C3             1.2923    -0.4484    -0.0127 C.2     
   4 C4             2.1472     0.7536    -0.0144 C.ar    
   5 C5             3.5223     0.9604    -0.0268 C.ar    
   6 C6             4.0177     2.2590    -0.0250 C.ar    
   7 C7             3.1357     3.3442    -0.0103 C.ar    
   8 C8             1.7855     3.1434     0.0024 C.ar    
   9 C9             1.2692     1.8502    -0.0001 C.ar    
  10 C10            1.7404    -1.8455    -0.0240 C.2     
  11 O11            2.9288    -2.1028    -0.0364 O.2     
  12 O12            0.8345    -2.8443    -0.0208 O.3     
  13 C13            5.4817     2.4940    -0.0381 C.ar    
  14 C14            5.9694     3.7977    -0.0362 C.ar    
  15 C15            7.3382     4.0084    -0.0485 C.ar    
  16 C16            8.1803     2.9015    -0.0625 C.ar    
  17 C17            7.6226     1.6218    -0.0636 C.ar    
  18 N18            6.3129     1.4579    -0.0462 N.ar    
  19 O19            8.4357     0.5346    -0.0772 O.3     
  20 C20            7.8046    -0.7475    -0.0776 C.3     
  21 N21            9.5692     3.0687    -0.0757 N.3     
  22 C22            9.9995     3.8210    -1.2685 C.3     
  23 C23           10.7807     5.0561    -0.7728 C.3     
  24 C24           11.2368     4.6338     0.6487 C.3     
  25 C25           10.0271     3.7937     1.1287 C.3     
  26 O26           11.9098     5.3097    -1.6112 O.3     
  27 Cl27          -1.4343     2.3055     0.0216 Cl      
  28 H28           -0.8729    -0.6372     0.0075 H       
  29 H29            4.1996     0.1192    -0.0374 H       
  30 H30            3.5266     4.3510    -0.0085 H       
  31 H31            1.1155     3.9904     0.0144 H       
  32 H32            1.1776    -3.7483    -0.0286 H       
  33 H33            5.2881     4.6356    -0.0255 H       
  34 H34            7.7426     5.0098    -0.0476 H       
  35 H35            8.5662    -1.5273    -0.0891 H       
  36 H36            7.1919    -0.8512     0.8179 H       
  37 H37            7.1745    -0.8420    -0.9620 H       
  38 H38           10.6451     3.1976    -1.8871 H       
  39 H39            9.1280     4.1387    -1.8409 H       
  40 H40           10.1307     5.9297    -0.7253 H       
  41 H41           12.1409     4.0266     0.6044 H       
  42 H42           11.3845     5.5054     1.2863 H       
  43 H43            9.2372     4.4450     1.5027 H       
  44 H44           10.3367     3.0893     1.9008 H       
  45 H45           12.4349     6.0761    -1.3427 H       
@<TRIPOS>BOND
   1    1    2 1
   2    1    9 1
   3    1   27 1
   4    2    3 2
   5    2   28 1
   6    3    4 1
   7    3   10 1
   8    4    5 ar
   9    4    9 ar
  10    5    6 ar
  11    5   29 1
  12    6    7 ar
  13    6   13 1
  14    7    8 ar
  15    7   30 1
  16    8    9 ar
  17    8   31 1
  18   10   11 2
  19   10   12 1
  20   12   32 1
  21   13   14 ar
  22   13   18 ar
  23   14   15 ar
  24   14   33 1
  25   15   16 ar
  26   15   34 1
  27   16   17 ar
  28   16   21 1
  29   17   18 ar
  30   17   19 1
  31   19   20 1
  32   20   35 1
  33   20   36 1
  34   20   37 1
  35   21   22 1
  36   21   25 1
  37   22   23 1
  38   22   38 1
  39   22   39 1
  40   23   24 1
  41   23   26 1
  42   23   40 1
  43   24   25 1
  44   24   41 1
  45   24   42 1
  46   25   43 1
  47   25   44 1
  48   26   45 1

#	End of record

