#	Name: ASD01411058
#	Creating user name:	WinNT
#	Creation time:	15. 06. 2019 19:19

#	Modifying user name:	WinNT
#	Modification time:	15. 06. 2019 19:19

#	Program:	/corina/corina34_cracker 3.40 0067  02.08.2006

@<TRIPOS>MOLECULE
ASD01411058
  49   52    0    0    0
SMALL
NO_CHARGES


@<TRIPOS>ATOM
   1 C1            -0.0184     1.5028     0.0103 C.3     
   2 C2             0.0013    -0.0030    -0.0468 C.ar    
   3 O3            -0.6730     1.9255     1.2081 O.3     
   4 C4             0.0902    -0.6793    -1.2787 C.ar    
   5 C5            -0.0609    -0.7495     1.0950 C.ar    
   6 C6             0.1055    -2.0966    -1.2849 C.ar    
   7 C7             0.1639     0.0214    -2.4921 C.ar    
   8 C8            -0.0413    -2.1406     1.0183 C.ar    
   9 C9             0.1942    -2.7756    -2.5129 C.ar    
  10 N10            0.0363    -2.7672    -0.1304 N.ar    
  11 C11            0.2496    -0.6712    -3.6668 C.ar    
  12 C12            0.2638    -2.0691    -3.6730 C.ar    
  13 O13            0.3205     0.0065    -4.8426 O.3     
  14 H14           -0.2480     1.6147     2.0193 H       
  15 C15            0.4085    -0.7735    -6.0367 C.3     
  16 C16            1.4170     2.0324    -0.0006 C.3     
  17 C17            1.3970     3.5577    -0.1179 C.3     
  18 C18            0.6435     4.1511     1.0742 C.3     
  19 C19            1.3454     3.7486     2.3727 C.3     
  20 C20            2.1189     1.6299     1.2980 C.3     
  21 C21            2.5668     2.8870     2.0464 C.3     
  22 C22            2.8324     4.0873    -0.1288 C.3     
  23 C23            3.5343     3.6849     1.1698 C.3     
  24 C24            3.9754     4.9230     1.9069 C.2     
  25 C25            5.2453     5.1131     2.1668 C.2     
  26 H26           -0.5559     1.8922    -0.8543 H       
  27 H27           -0.1248    -0.2621     2.0567 H       
  28 H28            0.1525     1.1013    -2.4976 H       
  29 H29           -0.0911    -2.7181     1.9296 H       
  30 H30            0.2073    -3.8553    -2.5349 H       
  31 H31            0.3318    -2.5960    -4.6133 H       
  32 H32            1.3048    -1.3927    -6.0010 H       
  33 H33           -0.4711    -1.4119    -6.1193 H       
  34 H34            0.4588    -0.1108    -6.9007 H       
  35 H35            1.9538     1.6096    -0.8498 H       
  36 H36            0.8969     3.8444    -1.0430 H       
  37 H37            0.6292     5.2378     0.9906 H       
  38 H38           -0.3791     3.7738     1.0819 H       
  39 H39            1.6645     4.6442     2.9059 H       
  40 H40            0.6562     3.1802     2.9972 H       
  41 H41            1.4297     1.0615     1.9225 H       
  42 H42            2.9891     1.0161     1.0655 H       
  43 H43            3.0669     2.6003     2.9715 H       
  44 H44            3.3692     3.6646    -0.9780 H       
  45 H45            2.8181     5.1740    -0.2124 H       
  46 H46            4.4045     3.0710     0.9373 H       
  47 H47            3.2447     5.6537     2.2209 H       
  48 H48            5.9760     4.3824     1.8528 H       
  49 H49            5.5614     6.0005     2.6951 H       
@<TRIPOS>BOND
   1    1    2 1
   2    1   16 1
   3    1    3 1
   4    1   26 1
   5    2    4 ar
   6    2    5 ar
   7    3   14 1
   8    4    6 ar
   9    4    7 ar
  10    5    8 ar
  11    5   27 1
  12    6    9 ar
  13    6   10 ar
  14    7   11 ar
  15    7   28 1
  16    8   10 ar
  17    8   29 1
  18    9   12 ar
  19    9   30 1
  20   11   13 1
  21   11   12 ar
  22   12   31 1
  23   13   15 1
  24   15   32 1
  25   15   33 1
  26   15   34 1
  27   16   17 1
  28   16   20 1
  29   16   35 1
  30   17   18 1
  31   17   22 1
  32   17   36 1
  33   18   19 1
  34   18   37 1
  35   18   38 1
  36   19   21 1
  37   19   39 1
  38   19   40 1
  39   20   21 1
  40   20   41 1
  41   20   42 1
  42   21   23 1
  43   21   43 1
  44   22   23 1
  45   22   44 1
  46   22   45 1
  47   23   24 1
  48   23   46 1
  49   24   25 2
  50   24   47 1
  51   25   48 1
  52   25   49 1

#	End of record

