#	Name: ASD02408009
#	Creating user name:	WinNT
#	Creation time:	15. 06. 2019 20:20

#	Modifying user name:	WinNT
#	Modification time:	15. 06. 2019 20:20

#	Program:	/corina/corina34_cracker 3.40 0067  02.08.2006

@<TRIPOS>MOLECULE
ASD02408009
  42   44    0    0    0
SMALL
NO_CHARGES


@<TRIPOS>ATOM
   1 C1            -0.0326     1.3878     0.1544 C.ar    
   2 C2            -0.0022     0.0083     0.1760 C.ar    
   3 C3             1.2448     2.1734     0.3034 C.3     
   4 C4             1.3881     2.6332     1.7313 C.2     
   5 N5             2.4710     3.3571     2.0769 N.am    
   6 N6             0.4567     2.3218     2.5906 N.2     
   7 C7             0.5310     2.7037     3.8729 C.2     
   8 C8             1.6374     3.4573     4.3026 C.2     
   9 C9             2.6320     3.7855     3.3465 C.2     
  10 S10           -0.7442     2.2669     5.0077 S.3     
  11 O11            3.6120     4.4368     3.6649 O.2     
  12 C12           -1.1741    -0.7142     0.0395 C.ar    
  13 C13           -2.3818    -0.0592    -0.1194 C.ar    
  14 C14           -2.4239     1.3203    -0.1425 C.ar    
  15 C15           -1.2461     2.0529    -0.0112 C.ar    
  16 C16           -1.8419     1.3412     3.9059 C.3     
  17 C17           -1.2850     3.5360    -0.0348 C.ar    
  18 C18           -0.5291     4.2507    -0.9698 C.ar    
  19 C19           -0.5978     5.6308    -0.9530 C.ar    
  20 C20           -1.4090     6.2586    -0.0154 C.ar    
  21 N21           -2.1115     5.5533     0.8561 N.ar    
  22 C22           -2.0789     4.2359     0.8697 C.ar    
  23 O23           -1.4812     7.6131     0.0068 O.3     
  24 C24           -2.3317     8.2013     0.9930 C.3     
  25 C25            1.7541     3.8849     5.6643 C.1     
  26 N26            1.8468     4.2241     6.7445 N.1     
  27 H27            0.9381    -0.5083     0.2995 H       
  28 H28            2.0927     1.5419     0.0382 H       
  29 H29            1.2170     3.0405    -0.3565 H       
  30 H30            3.1400     3.5714     1.4081 H       
  31 H31           -1.1457    -1.7936     0.0566 H       
  32 H32           -3.2936    -0.6281    -0.2259 H       
  33 H33           -3.3675     1.8308    -0.2666 H       
  34 H34           -2.7076     0.9893     4.4671 H       
  35 H35           -2.1737     1.9895     3.0949 H       
  36 H36           -1.3056     0.4872     3.4922 H       
  37 H37            0.0934     3.7365    -1.6871 H       
  38 H38           -0.0274     6.2147    -1.6601 H       
  39 H39           -2.6662     3.6941     1.5963 H       
  40 H40           -2.2977     9.2869     0.9013 H       
  41 H41           -3.3547     7.8559     0.8434 H       
  42 H42           -1.9915     7.9098     1.9867 H       
@<TRIPOS>BOND
   1    1    2 ar
   2    1    3 1
   3    1   15 ar
   4    2   12 ar
   5    2   27 1
   6    3    4 1
   7    3   28 1
   8    3   29 1
   9    4    5 1
  10    4    6 2
  11    5    9 am
  12    5   30 1
  13    6    7 1
  14    7    8 2
  15    7   10 1
  16    8    9 1
  17    8   25 1
  18    9   11 2
  19   10   16 1
  20   12   13 ar
  21   12   31 1
  22   13   14 ar
  23   13   32 1
  24   14   15 ar
  25   14   33 1
  26   15   17 1
  27   16   34 1
  28   16   35 1
  29   16   36 1
  30   17   18 ar
  31   17   22 ar
  32   18   19 ar
  33   18   37 1
  34   19   20 ar
  35   19   38 1
  36   20   21 ar
  37   20   23 1
  38   21   22 ar
  39   22   39 1
  40   23   24 1
  41   24   40 1
  42   24   41 1
  43   24   42 1
  44   25   26 3

#	End of record

