#	Name: ASD01916249
#	Creating user name:	WinNT
#	Creation time:	15. 06. 2019 20:07

#	Modifying user name:	WinNT
#	Modification time:	15. 06. 2019 20:07

#	Program:	/corina/corina34_cracker 3.40 0067  02.08.2006

@<TRIPOS>MOLECULE
ASD01916249
  37   39    0    0    0
SMALL
NO_CHARGES


@<TRIPOS>ATOM
   1 C1            -0.0525     1.3261    -0.2458 C.ar    
   2 C2             0.0333    -0.0536    -0.1709 C.ar    
   3 C3             1.2285    -0.6576     0.1723 C.ar    
   4 C4             2.3517     0.1251     0.4437 C.ar    
   5 C5             2.2627     1.5155     0.3670 C.ar    
   6 C6             1.0607     2.1111     0.0228 C.ar    
   7 O7             0.9711     3.4649    -0.0531 O.3     
   8 C8             1.4668     4.0760    -1.1612 C.ar    
   9 C9             1.4015     5.4584    -1.3031 C.ar    
  10 N10            1.8955     6.0155    -2.3965 N.ar    
  11 C11            2.4433     5.2793    -3.3424 C.ar    
  12 N12            2.5235     3.9674    -3.2451 N.ar    
  13 C13            2.0577     3.3359    -2.1802 C.ar    
  14 F14           -1.0538    -0.8117    -0.4335 F       
  15 C15            3.6315    -0.5169     0.8116 C.2     
  16 N16            3.7149    -1.8600     0.8854 N.am    
  17 O17            4.6085     0.1667     1.0475 O.2     
  18 C18            4.9442    -2.4693     1.1277 C.ar    
  19 C19            5.0459    -3.8552     1.0872 C.ar    
  20 C20            6.2730    -4.4474     1.3294 C.ar    
  21 C21            7.3602    -3.6296     1.6048 C.ar    
  22 C22            7.1868    -2.2596     1.6289 C.ar    
  23 N23            6.0060    -1.7229     1.3891 N.ar    
  24 C24            6.4253    -5.9463     1.2953 C.3     
  25 H25           -0.9873     1.7933    -0.5185 H       
  26 H26            1.2929    -1.7341     0.2308 H       
  27 H27            3.1288     2.1257     0.5764 H       
  28 H28            0.9537     6.0678    -0.5321 H       
  29 H29            2.8375     5.7650    -4.2229 H       
  30 H30            2.1270     2.2606    -2.1070 H       
  31 H31            2.9192    -2.4025     0.7698 H       
  32 H32            4.1789    -4.4614     0.8700 H       
  33 H33            8.3315    -4.0602     1.7986 H       
  34 H34            8.0299    -1.6193     1.8427 H       
  35 H35            6.6817    -6.2626     0.2842 H       
  36 H36            7.2169    -6.2468     1.9818 H       
  37 H37            5.4874    -6.4137     1.5954 H       
@<TRIPOS>BOND
   1    1    2 ar
   2    1    6 ar
   3    1   25 1
   4    2    3 ar
   5    2   14 1
   6    3    4 ar
   7    3   26 1
   8    4    5 ar
   9    4   15 1
  10    5    6 ar
  11    5   27 1
  12    6    7 1
  13    7    8 1
  14    8    9 ar
  15    8   13 ar
  16    9   10 ar
  17    9   28 1
  18   10   11 ar
  19   11   12 ar
  20   11   29 1
  21   12   13 ar
  22   13   30 1
  23   15   16 am
  24   15   17 2
  25   16   18 1
  26   16   31 1
  27   18   19 ar
  28   18   23 ar
  29   19   20 ar
  30   19   32 1
  31   20   21 ar
  32   20   24 1
  33   21   22 ar
  34   21   33 1
  35   22   23 ar
  36   22   34 1
  37   24   35 1
  38   24   36 1
  39   24   37 1

#	End of record

