#	Name: ASD05260002
#	Creating user name:	WinNT
#	Creation time:	15. 06. 2019 20:58

#	Modifying user name:	WinNT
#	Modification time:	15. 06. 2019 20:58

#	Program:	/corina/corina34_cracker 3.40 0067  02.08.2006

@<TRIPOS>MOLECULE
ASD05260002
  28   29    0    0    0
SMALL
NO_CHARGES


@<TRIPOS>ATOM
   1 Br1            0.0021    -0.0041     0.0020 Br      
   2 C2            -0.0236     1.8867     0.0124 C.ar    
   3 C3             1.1680     2.5922     0.0048 C.ar    
   4 C4             1.1566     3.9711     0.0123 C.ar    
   5 C5            -0.0611     4.6564     0.0276 C.ar    
   6 C6            -1.2598     3.9382     0.0352 C.ar    
   7 C7            -1.2338     2.5595     0.0218 C.ar    
   8 C8            -0.0811     6.1301     0.0362 C.2     
   9 C9            -1.2526     6.7854     0.0509 C.2     
  10 C10           -1.2726     8.2593     0.0595 C.ar    
  11 C11           -2.4903     8.9435     0.0748 C.ar    
  12 C12           -2.5038    10.3280     0.0833 C.ar    
  13 O13           -3.6879    10.9948     0.0982 O.3     
  14 C14           -1.3102    11.0358     0.0772 C.ar    
  15 C15           -0.0980    10.3608     0.0615 C.ar    
  16 C16           -0.0739     8.9763     0.0583 C.ar    
  17 O17            1.0676    11.0596     0.0546 O.3     
  18 H18            2.1084     2.0612    -0.0066 H       
  19 H19            2.0866     4.5201     0.0068 H       
  20 H20           -2.2044     4.4617     0.0474 H       
  21 H21           -2.1595     2.0031     0.0277 H       
  22 H22            0.8467     6.6828     0.0307 H       
  23 H23           -2.1805     6.2328     0.0565 H       
  24 H24           -3.4197     8.3934     0.0797 H       
  25 H25           -4.0225    11.1824     0.9859 H       
  26 H26           -1.3249    12.1157     0.0842 H       
  27 H27            0.8701     8.4518     0.0464 H       
  28 H28            1.4134    11.2564     0.9359 H       
@<TRIPOS>BOND
   1    1    2 1
   2    2    3 ar
   3    2    7 ar
   4    3    4 ar
   5    3   18 1
   6    4    5 ar
   7    4   19 1
   8    5    6 ar
   9    5    8 1
  10    6    7 ar
  11    6   20 1
  12    7   21 1
  13    8    9 2
  14    8   22 1
  15    9   10 1
  16    9   23 1
  17   10   11 ar
  18   10   16 ar
  19   11   12 ar
  20   11   24 1
  21   12   13 1
  22   12   14 ar
  23   13   25 1
  24   14   15 ar
  25   14   26 1
  26   15   16 ar
  27   15   17 1
  28   16   27 1
  29   17   28 1

#	End of record

