#	Name: ASD03331065
#	Creating user name:	WinNT
#	Creation time:	15. 06. 2019 20:38

#	Modifying user name:	WinNT
#	Modification time:	15. 06. 2019 20:38

#	Program:	/corina/corina34_cracker 3.40 0067  02.08.2006

@<TRIPOS>MOLECULE
ASD03331065
  49   52    0    0    0
SMALL
NO_CHARGES


@<TRIPOS>ATOM
   1 C1            -0.0108     1.2038     0.0246 C.2     
   2 O2             0.0608    -0.0103     0.0190 O.2     
   3 O3             3.2838     3.2683    -1.0563 O.3     
   4 C4             3.3088     1.8389    -1.0617 C.3     
   5 C5             2.4402     1.3146     0.0874 C.3     
   6 N6             1.1142     1.9453    -0.0079 N.am    
   7 C7             1.0526     3.4096    -0.1404 C.3     
   8 C8             1.9888     3.8319    -1.2785 C.3     
   9 N9            -3.4882     2.2174     0.0301 N.pl3   
  10 C10           -2.5376     1.2467    -0.0303 C.2     
  11 C11           -2.7994    -0.2310    -0.1609 C.3     
  12 N12           -3.7889    -0.4531    -1.2268 N.3     
  13 C13           -5.1545    -0.4070    -0.7008 C.3     
  14 C14           -5.2645     0.5945     0.4453 C.3     
  15 C15           -4.9349     2.0011    -0.0619 C.3     
  16 C16           -2.8442     3.4113     0.1781 C.2     
  17 N17           -1.5503     3.1906     0.1904 N.2     
  18 C18           -1.3276     1.8640     0.0608 C.2     
  19 C19           -3.4951     4.7331     0.3033 C.ar    
  20 C20           -3.1265     5.6015     1.3343 C.ar    
  21 C21           -3.7381     6.8354     1.4466 C.ar    
  22 C22           -4.7147     7.2119     0.5396 C.ar    
  23 C23           -5.0848     6.3530    -0.4859 C.ar    
  24 C24           -4.4756     5.1200    -0.6110 C.ar    
  25 F25           -6.0385     6.7264    -1.3669 F       
  26 F26           -5.3096     8.4195     0.6538 F       
  27 F27           -2.1743     5.2351     2.2199 F       
  28 C28           -3.5359    -1.7211    -1.9241 C.3     
  29 H29            2.9178     1.4715    -2.0105 H       
  30 H30            4.3339     1.4923    -0.9308 H       
  31 H31            2.3387     0.2324     0.0066 H       
  32 H32            2.9006     1.5703     1.0418 H       
  33 H33            0.0322     3.7147    -0.3721 H       
  34 H34            1.3733     3.8763     0.7910 H       
  35 H35            2.0643     4.9190    -1.3035 H       
  36 H36            1.5930     3.4717    -2.2281 H       
  37 H37           -1.8715    -0.7446    -0.4124 H       
  38 H38           -3.1868    -0.6172     0.7820 H       
  39 H39           -5.8361    -0.1138    -1.4992 H       
  40 H40           -5.4325    -1.3970    -0.3392 H       
  41 H41           -6.2796     0.5810     0.8422 H       
  42 H42           -4.5642     0.3205     1.2344 H       
  43 H43           -5.4534     2.7397     0.5495 H       
  44 H44           -5.2525     2.0979    -1.1000 H       
  45 H45           -3.4544     7.5072     2.2431 H       
  46 H46           -4.7606     4.4546    -1.4125 H       
  47 H47           -3.5970    -2.5451    -1.2133 H       
  48 H48           -4.2816    -1.8603    -2.7069 H       
  49 H49           -2.5413    -1.6986    -2.3696 H       
@<TRIPOS>BOND
   1    1    2 2
   2    1    6 am
   3    1   18 1
   4    3    4 1
   5    3    8 1
   6    4    5 1
   7    4   29 1
   8    4   30 1
   9    5    6 1
  10    5   31 1
  11    5   32 1
  12    6    7 1
  13    7    8 1
  14    7   33 1
  15    7   34 1
  16    8   35 1
  17    8   36 1
  18    9   10 1
  19    9   15 1
  20    9   16 1
  21   10   11 1
  22   10   18 2
  23   11   12 1
  24   11   37 1
  25   11   38 1
  26   12   13 1
  27   12   28 1
  28   13   14 1
  29   13   39 1
  30   13   40 1
  31   14   15 1
  32   14   41 1
  33   14   42 1
  34   15   43 1
  35   15   44 1
  36   16   17 2
  37   16   19 1
  38   17   18 1
  39   19   20 ar
  40   19   24 ar
  41   20   21 ar
  42   20   27 1
  43   21   22 ar
  44   21   45 1
  45   22   23 ar
  46   22   26 1
  47   23   24 ar
  48   23   25 1
  49   24   46 1
  50   28   47 1
  51   28   48 1
  52   28   49 1

#	End of record

