#	Name: ASD01150011
#	Creating user name:	WinNT
#	Creation time:	15. 06. 2019 19:03

#	Modifying user name:	WinNT
#	Modification time:	15. 06. 2019 19:03

#	Program:	/corina/corina34_cracker 3.40 0067  02.08.2006

@<TRIPOS>MOLECULE
ASD01150011
  41   43    0    0    0
SMALL
NO_CHARGES


@<TRIPOS>ATOM
   1 N1            -0.0159     1.3197     0.0093 N.ar    
   2 C2             0.0021    -0.0041     0.0020 C.ar    
   3 C3             1.2289    -0.6636    -0.0132 C.ar    
   4 C4             2.4002     0.1158    -0.0202 C.ar    
   5 N5             2.2878     1.4399    -0.0121 N.ar    
   6 C6             1.1031     2.0166     0.0024 C.ar    
   7 C7             2.0960    -2.8027    -0.9563 C.ar    
   8 C8             2.1565    -4.1815    -0.9595 C.ar    
   9 C9             1.4273    -4.9105    -0.0374 C.ar    
  10 C10            0.6341    -4.2631     0.8927 C.ar    
  11 C11            0.5663    -2.8848     0.9056 C.ar    
  12 C12            1.2985    -2.1450    -0.0214 C.ar    
  13 C13            6.0359    -0.4503     0.5539 C.3     
  14 C14            4.8572     0.3392    -0.0420 C.3     
  15 C15            5.2496     0.6892    -1.4923 C.3     
  16 C16            6.3029    -0.3819    -1.8699 C.3     
  17 C17            7.1035    -0.5524    -0.5549 C.3     
  18 N18            3.6462    -0.4853    -0.0349 N.pl3   
  19 C19            1.0249     3.5216     0.0112 C.3     
  20 C20            1.4968    -6.4159    -0.0467 C.3     
  21 H21           -0.9211    -0.5645     0.0082 H       
  22 H22            2.6689    -2.2344    -1.6740 H       
  23 H23            2.7741    -4.6922    -1.6834 H       
  24 H24            0.0669    -4.8374     1.6103 H       
  25 H25           -0.0538    -2.3804     1.6318 H       
  26 H26            6.4422     0.0792     1.4158 H       
  27 H27            5.7069    -1.4468     0.8485 H       
  28 H28            4.6915     1.2518     0.5305 H       
  29 H29            4.3827     0.6200    -2.1494 H       
  30 H30            5.6864     1.6868    -1.5392 H       
  31 H31            5.8189    -1.3171    -2.1515 H       
  32 H32            6.9485    -0.0231    -2.6715 H       
  33 H33            7.8396     0.2446    -0.4504 H       
  34 H34            7.5894    -1.5277    -0.5279 H       
  35 H35            3.7181    -1.4526    -0.0405 H       
  36 H36            0.9962     3.8899    -1.0143 H       
  37 H37            0.1222     3.8354     0.5354 H       
  38 H38            1.8996     3.9279     0.5189 H       
  39 H39            2.3065    -6.7462     0.6040 H       
  40 H40            0.5525    -6.8255     0.3119 H       
  41 H41            1.6818    -6.7649    -1.0626 H       
@<TRIPOS>BOND
   1    1    2 ar
   2    1    6 ar
   3    2    3 ar
   4    2   21 1
   5    3    4 ar
   6    3   12 1
   7    4    5 ar
   8    4   18 1
   9    5    6 ar
  10    6   19 1
  11    7    8 ar
  12    7   12 ar
  13    7   22 1
  14    8    9 ar
  15    8   23 1
  16    9   10 ar
  17    9   20 1
  18   10   11 ar
  19   10   24 1
  20   11   12 ar
  21   11   25 1
  22   13   14 1
  23   13   17 1
  24   13   26 1
  25   13   27 1
  26   14   15 1
  27   14   18 1
  28   14   28 1
  29   15   16 1
  30   15   29 1
  31   15   30 1
  32   16   17 1
  33   16   31 1
  34   16   32 1
  35   17   33 1
  36   17   34 1
  37   18   35 1
  38   19   36 1
  39   19   37 1
  40   19   38 1
  41   20   39 1
  42   20   40 1
  43   20   41 1

#	End of record

