#	Name: ASD08170168
#	Creating user name:	WinNT
#	Creation time:	15. 06. 2019 21:17

#	Modifying user name:	WinNT
#	Modification time:	15. 06. 2019 21:17

#	Program:	/corina/corina34_cracker 3.40 0067  02.08.2006

@<TRIPOS>MOLECULE
ASD08170168
  76   77    0    0    0
SMALL
NO_CHARGES


@<TRIPOS>ATOM
   1 Cl1            0.0000     0.0000     0.0000 Cl      
   2 H2             0.0000     1.3700     0.0000 H       
   3 Cl3            5.0000     6.3700     5.0000 Cl      
   4 H4             5.0000     7.7400     5.0000 H       
   5 C5            14.0167    22.7925    14.3509 C.3     
   6 C6            15.4370    24.8376    14.5578 C.3     
   7 C7            16.8738    25.3621    14.5962 C.3     
   8 C8            16.8576    26.8598    14.7621 C.2     
   9 C9            14.0329    21.2948    14.1850 C.2     
  10 S10           16.8271    28.0505    13.4609 S.3     
  11 C11           16.8255    29.3011    14.6316 C.2     
  12 N12           16.8465    28.7644    15.8142 N.2     
  13 N13           16.8578    27.5040    15.8858 N.2     
  14 S14           14.0248    20.4173    12.6547 S.3     
  15 N15           14.0610    20.4206    15.1403 N.2     
  16 N16           14.0709    19.2064    14.7947 N.2     
  17 C17           14.0542    18.9411    13.5233 C.2     
  18 N18           14.0610    17.6693    12.9604 N.am    
  19 C19           14.0874    16.5809    13.7548 C.2     
  20 O20           14.1929    16.7094    14.9562 O.2     
  21 N21           16.8057    30.6651    14.3606 N.am    
  22 C22           16.8067    31.5536    15.3741 C.2     
  23 C23           16.8941    33.0294    15.0822 C.3     
  24 O24           16.7373    31.1653    16.5210 O.2     
  25 C25           13.9859    15.2042    13.1503 C.3     
  26 C26           15.3569    14.7349    12.7366 C.ar    
  27 C27           15.4535    23.3170    14.3893 C.3     
  28 C28           15.6119    14.4272    11.4133 C.ar    
  29 C29           15.5066    33.6158    15.0382 C.ar    
  30 C30           15.0504    34.2262    13.8849 C.ar    
  31 C31           13.7777    34.7642    13.8445 C.ar    
  32 C32           12.9609    34.6913    14.9574 C.ar    
  33 C33           13.4168    34.0801    16.1105 C.ar    
  34 C34           14.6879    33.5383    16.1494 C.ar    
  35 C35           16.8695    13.9967    11.0338 C.ar    
  36 C36           17.8721    13.8743    11.9775 C.ar    
  37 C37           17.6173    14.1828    13.3006 C.ar    
  38 C38           16.3609    14.6175    13.6794 C.ar    
  39 C39           13.4052    14.2355    14.1825 C.3     
  40 C40           11.9816    14.6230    14.4898 C.2     
  41 C41           11.0202    13.7431    14.3575 C.2     
  42 C42           17.7049    33.7195    16.1810 C.3     
  43 C43           19.1281    33.2259    16.1404 C.2     
  44 C44           20.1151    34.0807    16.0347 C.2     
  45 H45           13.4870    23.2452    13.5127 H       
  46 H46           13.5111    23.0495    15.2817 H       
  47 H47           14.9314    25.0946    15.4886 H       
  48 H48           14.9073    25.2903    13.7196 H       
  49 H49           17.4035    24.9094    15.4344 H       
  50 H50           17.3794    25.1051    13.6654 H       
  51 H51           14.0468    17.5657    11.9961 H       
  52 H52           16.7911    30.9770    13.4423 H       
  53 H53           17.3834    33.1812    14.1200 H       
  54 H54           13.3345    15.2380    12.2770 H       
  55 H55           15.9832    22.8643    15.2275 H       
  56 H56           15.9591    23.0600    13.4585 H       
  57 H57           14.8286    14.5228    10.6760 H       
  58 H58           15.6885    34.2832    13.0154 H       
  59 H59           13.4216    35.2417    12.9437 H       
  60 H60           11.9668    35.1122    14.9261 H       
  61 H61           12.7788    34.0235    16.9800 H       
  62 H62           15.0441    33.0608    17.0502 H       
  63 H63           17.0686    13.7556    10.0000 H       
  64 H64           18.8545    13.5372    11.6811 H       
  65 H65           18.4006    14.0869    14.0380 H       
  66 H66           16.1619    14.8586    14.7132 H       
  67 H67           13.4276    13.2219    13.7824 H       
  68 H68           13.9988    14.2789    15.0957 H       
  69 H69           11.7541    15.6260    14.8192 H       
  70 H70           10.0000    14.0207    14.5778 H       
  71 H71           11.2478    12.7400    14.0282 H       
  72 H72           17.6895    34.7976    16.0212 H       
  73 H73           17.2683    33.4901    17.1531 H       
  74 H74           19.3344    32.1673    16.1984 H       
  75 H75           19.9089    35.1392    15.9768 H       
  76 H76           21.1351    33.7269    16.0056 H       
@<TRIPOS>BOND
   1    1    2 1
   2    3    4 1
   3    5    9 1
   4    5   27 1
   5    5   45 1
   6    5   46 1
   7    6    7 1
   8    6   27 1
   9    6   47 1
  10    6   48 1
  11    7    8 1
  12    7   49 1
  13    7   50 1
  14    8   10 1
  15    8   13 2
  16    9   14 1
  17    9   15 2
  18   10   11 1
  19   11   12 2
  20   11   21 1
  21   12   13 1
  22   14   17 1
  23   15   16 1
  24   16   17 2
  25   17   18 1
  26   18   19 am
  27   18   51 1
  28   19   20 2
  29   19   25 1
  30   21   22 am
  31   21   52 1
  32   22   23 1
  33   22   24 2
  34   23   29 1
  35   23   42 1
  36   23   53 1
  37   25   26 1
  38   25   39 1
  39   25   54 1
  40   26   28 ar
  41   26   38 ar
  42   27   55 1
  43   27   56 1
  44   28   35 ar
  45   28   57 1
  46   29   30 ar
  47   29   34 ar
  48   30   31 ar
  49   30   58 1
  50   31   32 ar
  51   31   59 1
  52   32   33 ar
  53   32   60 1
  54   33   34 ar
  55   33   61 1
  56   34   62 1
  57   35   36 ar
  58   35   63 1
  59   36   37 ar
  60   36   64 1
  61   37   38 ar
  62   37   65 1
  63   38   66 1
  64   39   40 1
  65   39   67 1
  66   39   68 1
  67   40   41 2
  68   40   69 1
  69   41   70 1
  70   41   71 1
  71   42   43 1
  72   42   72 1
  73   42   73 1
  74   43   44 2
  75   43   74 1
  76   44   75 1
  77   44   76 1

#	End of record

