#	Name: ASD04880160
#	Creating user name:	WinNT
#	Creation time:	15. 06. 2019 20:52

#	Modifying user name:	WinNT
#	Modification time:	15. 06. 2019 20:52

#	Program:	/corina/corina34_cracker 3.40 0067  02.08.2006

@<TRIPOS>MOLECULE
ASD04880160
  44   47    0    0    0
SMALL
NO_CHARGES


@<TRIPOS>ATOM
   1 C1            -0.0144     1.2121     0.0087 C.2     
   2 O2             0.0565    -0.0019    -0.0144 O.2     
   3 C3             1.2175     2.0238    -0.0196 C.ar    
   4 C4             2.4668     1.4044     0.0724 C.ar    
   5 C5             3.6176     2.1678     0.0451 C.ar    
   6 C6             3.5312     3.5555    -0.0741 C.ar    
   7 C7             2.2892     4.1698    -0.1658 C.ar    
   8 C8             1.1381     3.4132    -0.1442 C.ar    
   9 N9            -1.2184     1.8160     0.0546 N.am    
  10 N10           -1.4334     3.1853     0.1970 N.2     
  11 C11           -2.6765     3.5240     0.2140 C.2     
  12 C12           -3.5382     2.2900     0.0695 C.3     
  13 C13           -2.5206     1.1376    -0.0440 C.3     
  14 C14           -3.1809     4.9021     0.3534 C.ar    
  15 C15           -2.2846     5.9665     0.4804 C.ar    
  16 C16           -2.7630     7.2568     0.6108 C.ar    
  17 C17           -4.1359     7.4937     0.6156 C.ar    
  18 C18           -5.0262     6.4372     0.4900 C.ar    
  19 C19           -4.5564     5.1479     0.3532 C.ar    
  20 O20           -4.6043     8.7634     0.7440 O.3     
  21 C21           -6.0230     8.9349     0.7411 C.3     
  22 O22           -1.8935     8.2950     0.7350 O.3     
  23 C23           -0.4999     7.9791     0.7227 C.3     
  24 O24            4.9355     1.8182     0.1165 O.3     
  25 C25            5.6626     2.9615    -0.3705 C.3     
  26 O26            4.7936     4.0710    -0.0765 O.3     
  27 H27            2.5324     0.3304     0.1650 H       
  28 H28            2.2256     5.2440    -0.2577 H       
  29 H29            0.1742     3.8944    -0.2200 H       
  30 H30           -4.1714     2.1608     0.9473 H       
  31 H31           -4.1441     2.3504    -0.8346 H       
  32 H32           -2.6174     0.6310    -1.0042 H       
  33 H33           -2.6490     0.4327     0.7774 H       
  34 H34           -1.2206     5.7815     0.4769 H       
  35 H35           -6.0896     6.6253     0.4949 H       
  36 H36           -5.2516     4.3278     0.2508 H       
  37 H37           -6.2613     9.9929     0.8504 H       
  38 H38           -6.4317     8.5657    -0.1995 H       
  39 H39           -6.4581     8.3769     1.5702 H       
  40 H40           -0.2725     7.3062     1.5494 H       
  41 H41           -0.2454     7.4952    -0.2203 H       
  42 H42            0.0813     8.8951     0.8294 H       
  43 H43            6.6099     3.0665     0.1583 H       
  44 H44            5.8295     2.8800    -1.4446 H       
@<TRIPOS>BOND
   1    1    2 2
   2    1    3 1
   3    1    9 am
   4    3    4 ar
   5    3    8 ar
   6    4    5 ar
   7    4   27 1
   8    5    6 ar
   9    5   24 1
  10    6    7 ar
  11    6   26 1
  12    7    8 ar
  13    7   28 1
  14    8   29 1
  15    9   10 1
  16    9   13 1
  17   10   11 2
  18   11   12 1
  19   11   14 1
  20   12   13 1
  21   12   30 1
  22   12   31 1
  23   13   32 1
  24   13   33 1
  25   14   15 ar
  26   14   19 ar
  27   15   16 ar
  28   15   34 1
  29   16   17 ar
  30   16   22 1
  31   17   18 ar
  32   17   20 1
  33   18   19 ar
  34   18   35 1
  35   19   36 1
  36   20   21 1
  37   21   37 1
  38   21   38 1
  39   21   39 1
  40   22   23 1
  41   23   40 1
  42   23   41 1
  43   23   42 1
  44   24   25 1
  45   25   26 1
  46   25   43 1
  47   25   44 1

#	End of record

