#	Name: ASD01120184
#	Creating user name:	WinNT
#	Creation time:	15. 06. 2019 18:59

#	Modifying user name:	WinNT
#	Modification time:	15. 06. 2019 18:59

#	Program:	/corina/corina34_cracker 3.40 0067  02.08.2006

@<TRIPOS>MOLECULE
ASD01120184
  29   31    0    0    0
SMALL
NO_CHARGES


@<TRIPOS>ATOM
   1 C1            -0.0167     1.3828     0.0096 C.ar    
   2 C2             0.0021    -0.0041     0.0020 C.ar    
   3 C3            -1.1785    -0.7198     0.0090 C.ar    
   4 C4            -2.3914    -0.0514     0.0242 C.ar    
   5 C5            -2.4156     1.3515     0.0324 C.ar    
   6 C6            -1.2159     2.0636     0.0305 C.ar    
   7 O7            -3.6828    -0.4556     0.0344 O.3     
   8 C8            -4.4648     0.6381     0.0482 C.2     
   9 N9            -3.7266     1.7186     0.0472 N.2     
  10 Cl10           1.4775     2.2664     0.0001 Cl      
  11 N11           -5.8411     0.6234     0.0614 N.am    
  12 S12           -6.6843     2.0485     0.0777 S.o2    
  13 O13           -8.0618     1.7001     0.0544 O.2     
  14 O14           -6.1020     2.8477     1.0983 O.2     
  15 C15           -6.3526     2.8683    -1.4462 C.2     
  16 N16           -7.0553     2.7371    -2.5811 N.2     
  17 C17           -6.5253     3.4909    -3.5051 C.2     
  18 N18           -5.4580     4.1317    -2.9817 N.pl3   
  19 C19           -5.3524     3.7408    -1.6741 C.2     
  20 C20           -4.5804     5.0733    -3.6812 C.3     
  21 H21            0.9466    -0.5276    -0.0098 H       
  22 H22           -1.1563    -1.7995     0.0023 H       
  23 H23           -1.2263     3.1436     0.0371 H       
  24 H24           -6.3171    -0.2218     0.0612 H       
  25 H25           -6.8811     3.5862    -4.5204 H       
  26 H26           -4.6063     4.0648    -0.9636 H       
  27 H27           -4.9698     6.0851    -3.5687 H       
  28 H28           -3.5782     5.0203    -3.2560 H       
  29 H29           -4.5402     4.8151    -4.7394 H       
@<TRIPOS>BOND
   1    1    2 ar
   2    1   10 1
   3    1    6 ar
   4    2    3 ar
   5    2   21 1
   6    3    4 ar
   7    3   22 1
   8    4    5 ar
   9    4    7 1
  10    5    6 ar
  11    5    9 1
  12    6   23 1
  13    7    8 1
  14    8    9 2
  15    8   11 1
  16   11   12 am
  17   11   24 1
  18   12   13 2
  19   12   14 2
  20   12   15 1
  21   15   16 1
  22   15   19 2
  23   16   17 2
  24   17   18 1
  25   17   25 1
  26   18   19 1
  27   18   20 1
  28   19   26 1
  29   20   27 1
  30   20   28 1
  31   20   29 1

#	End of record

