#	Name: ASD01912142
#	Creating user name:	WinNT
#	Creation time:	15. 06. 2019 19:59

#	Modifying user name:	WinNT
#	Modification time:	15. 06. 2019 19:59

#	Program:	/corina/corina34_cracker 3.40 0067  02.08.2006

@<TRIPOS>MOLECULE
ASD01912142
  45   48    0    0    0
SMALL
NO_CHARGES


@<TRIPOS>ATOM
   1 C1            -0.2688     1.2175    -0.1377 C.3     
   2 C2            -0.4476    -0.2852     0.0901 C.3     
   3 C3             0.4309    -0.7336     1.2603 C.3     
   4 C4            -0.0034     0.0031     2.5313 C.3     
   5 N5             0.0270     1.4492     2.2734 N.am    
   6 C6            -0.7111     1.9763     1.1175 C.3     
   7 C7             0.8485     3.7073     2.7380 C.ar    
   8 C8             0.7187     2.2765     3.0818 C.2     
   9 O9             1.2359     1.8452     4.0940 O.2     
  10 C10            1.1814     1.5144    -0.4201 C.2     
  11 O11            2.2145     1.2673     0.3916 O.3     
  12 N12            3.2492     1.6241    -0.1310 N.2     
  13 C13            3.0035     2.1307    -1.3141 C.2     
  14 N14            1.6657     2.0573    -1.5086 N.2     
  15 C15            3.9996     2.6752    -2.2601 C.2     
  16 C16            0.9276     4.6667     3.7497 C.ar    
  17 C17            1.0486     6.0004     3.4233 C.ar    
  18 C18            1.0917     6.3901     2.0933 C.ar    
  19 C19            1.0131     5.4417     1.0849 C.ar    
  20 C20            0.8983     4.1048     1.4002 C.ar    
  21 F21            1.2104     7.6986     1.7789 F       
  22 C22            0.9571    -0.3346     3.6734 C.3     
  23 C23            5.3461     2.7407    -2.0581 C.2     
  24 C24            5.9127     3.3242    -3.2020 C.2     
  25 C25            4.9078     3.5973    -4.0645 C.2     
  26 N26            3.7338     3.1991    -3.5001 N.pl3   
  27 Cl27           7.6000     3.6387    -3.4625 Cl      
  28 H28           -0.8765     1.5317    -0.9863 H       
  29 H29           -1.4923    -0.4961     0.3187 H       
  30 H30           -0.1569    -0.8261    -0.8104 H       
  31 H31            0.3208    -1.8081     1.4070 H       
  32 H32            1.4732    -0.5005     1.0428 H       
  33 H33           -1.0155    -0.2988     2.8009 H       
  34 H34           -0.4938     3.0378     0.9983 H       
  35 H35           -1.7809     1.8353     1.2718 H       
  36 H36            0.8937     4.3643     4.7859 H       
  37 H37            1.1095     6.7432     4.2049 H       
  38 H38            1.0469     5.7506     0.0506 H       
  39 H39            0.8375     3.3668     0.6140 H       
  40 H40            1.9392     0.0866     3.4586 H       
  41 H41            0.5769     0.0862     4.6042 H       
  42 H42            1.0393    -1.4171     3.7709 H       
  43 H43            5.8784     2.4061    -1.1799 H       
  44 H44            5.0179     4.0513    -5.0382 H       
  45 H45            2.8558     3.2780    -3.9048 H       
@<TRIPOS>BOND
   1    1    2 1
   2    1   10 1
   3    1    6 1
   4    1   28 1
   5    2    3 1
   6    2   29 1
   7    2   30 1
   8    3    4 1
   9    3   31 1
  10    3   32 1
  11    4    5 1
  12    4   22 1
  13    4   33 1
  14    5    6 1
  15    5    8 am
  16    6   34 1
  17    6   35 1
  18    7    8 1
  19    7   16 ar
  20    7   20 ar
  21    8    9 2
  22   10   11 1
  23   10   14 2
  24   11   12 1
  25   12   13 2
  26   13   14 1
  27   13   15 1
  28   15   23 2
  29   15   26 1
  30   16   17 ar
  31   16   36 1
  32   17   18 ar
  33   17   37 1
  34   18   19 ar
  35   18   21 1
  36   19   20 ar
  37   19   38 1
  38   20   39 1
  39   22   40 1
  40   22   41 1
  41   22   42 1
  42   23   24 1
  43   23   43 1
  44   24   25 2
  45   24   27 1
  46   25   26 1
  47   25   44 1
  48   26   45 1

#	End of record

