#	Name: ASD09800025
#	Creating user name:	WinNT
#	Creation time:	15. 06. 2019 21:24

#	Modifying user name:	WinNT
#	Modification time:	15. 06. 2019 21:24

#	Program:	/corina/corina34_cracker 3.40 0067  02.08.2006

@<TRIPOS>MOLECULE
ASD09800025
  79   84    0    0    0
SMALL
NO_CHARGES


@<TRIPOS>ATOM
   1 N1            -0.1390     1.4950    -0.0574 N.am    
   2 C2            -0.1963     0.1004    -0.1026 C.ar    
   3 C3            -0.8734    -0.5983     0.8728 C.ar    
   4 C4             0.4341    -0.6032    -1.1510 C.ar    
   5 C5             0.3643    -2.0176    -1.1784 C.ar    
   6 C6            -0.3333    -2.6971    -0.1594 C.ar    
   7 C7            -0.9380    -1.9884     0.8394 C.ar    
   8 C8             1.1284     0.0724    -2.1671 C.ar    
   9 C9             1.7246    -0.6385    -3.1636 C.ar    
  10 C10            1.6558    -2.0300    -3.1912 C.ar    
  11 C11            0.9919    -2.7178    -2.2220 C.ar    
  12 O12           -0.4086    -4.0542    -0.1737 O.3     
  13 C13            0.6430    -4.7550     0.3159 C.ar    
  14 C14            0.6543    -6.1526     0.2175 C.ar    
  15 N15            1.6538    -4.1150     0.8783 N.ar    
  16 C16            1.7475    -6.8552     0.7283 C.ar    
  17 C17            2.7774    -6.1363     1.3126 C.ar    
  18 C18            2.6971    -4.7575     1.3677 C.ar    
  19 C19           -0.4743    -6.8725    -0.4171 C.ar    
  20 N20           -1.5163    -6.2013    -0.9035 N.ar    
  21 C21           -0.4591    -8.2670    -0.5198 C.ar    
  22 C22           -1.5348    -8.8950    -1.1201 C.ar    
  23 N23           -2.5399    -8.1637    -1.5765 N.ar    
  24 C24           -2.5257    -6.8429    -1.4708 C.ar    
  25 N25           -3.5968    -6.1158    -1.9606 N.pl3   
  26 C26           -4.7269    -6.8073    -2.5860 C.3     
  27 C27           -5.7668    -5.7799    -3.0375 C.3     
  28 N28           -6.8999    -6.4733    -3.6646 N.3     
  29 C29           -7.9207    -5.5162    -4.1116 C.3     
  30 C30           -8.7311    -6.1315    -5.2543 C.3     
  31 C31           -9.7943    -5.1346    -5.7199 C.3     
  32 C32          -10.7276    -4.8026    -4.5538 C.3     
  33 C33           -9.9172    -4.1873    -3.4112 C.3     
  34 C34           -8.8540    -5.1842    -2.9456 C.3     
  35 N35          -11.7484    -3.8454    -5.0009 N.3     
  36 C36           -1.5767     1.9914     2.2363 C.ar    
  37 C37           -2.7600     2.4547     1.6898 C.ar    
  38 C38           -3.9580     2.2325     2.3456 C.ar    
  39 C39           -3.9718     1.5481     3.5460 C.ar    
  40 C40           -2.7887     1.0853     4.0918 C.ar    
  41 C41           -1.5923     1.3023     3.4346 C.ar    
  42 Cl42          -2.7419     3.3149     0.1820 Cl      
  43 S43           -0.0507     2.2732     1.4017 S.o2    
  44 O44            0.9489     1.6008     2.1552 O.2     
  45 O45           -0.0023     3.6636     1.1126 O.2     
  46 H46           -0.1470     2.0077    -0.8808 H       
  47 H47           -1.3598    -0.0609     1.6735 H       
  48 H48           -1.4707    -2.5148     1.6175 H       
  49 H49            1.1891     1.1507    -2.1585 H       
  50 H50            2.2581    -0.1164    -3.9441 H       
  51 H51            2.1366    -2.5708    -3.9930 H       
  52 H52            0.9470    -3.7963    -2.2558 H       
  53 H53            1.7889    -7.9329     0.6697 H       
  54 H54            3.6377    -6.6484     1.7177 H       
  55 H55            3.5002    -4.1969     1.8229 H       
  56 H56            0.3736    -8.8401    -0.1395 H       
  57 H57           -1.5549    -9.9706    -1.2160 H       
  58 H58           -3.5993    -5.1484    -1.8897 H       
  59 H59           -4.3747    -7.3715    -3.4495 H       
  60 H60           -5.1789    -7.4895    -1.8660 H       
  61 H61           -6.1190    -5.2157    -2.1739 H       
  62 H62           -5.3148    -5.0977    -3.7575 H       
  63 H63           -6.5900    -7.0547    -4.4288 H       
  64 H64           -7.4359    -4.6042    -4.4600 H       
  65 H65           -8.0663    -6.3680    -6.0850 H       
  66 H66           -9.2159    -7.0434    -4.9059 H       
  67 H67           -9.3095    -4.2226    -6.0683 H       
  68 H68          -10.3717    -5.5729    -6.5339 H       
  69 H69          -11.2124    -5.7145    -4.2054 H       
  70 H70           -9.4324    -3.2753    -3.7596 H       
  71 H71          -10.5821    -3.9508    -2.5805 H       
  72 H72           -9.3388    -6.0961    -2.5972 H       
  73 H73           -8.2766    -4.7458    -2.1316 H       
  74 H74          -12.3777    -3.6100    -4.2481 H       
  75 H75          -11.3223    -3.0170    -5.3884 H       
  76 H76           -4.8822     2.5943     1.9195 H       
  77 H77           -4.9067     1.3750     4.0581 H       
  78 H78           -2.7999     0.5507     5.0302 H       
  79 H79           -0.6685     0.9403     3.8613 H       
@<TRIPOS>BOND
   1    1    2 1
   2    1   43 am
   3    1   46 1
   4    2    3 ar
   5    2    4 ar
   6    3    7 ar
   7    3   47 1
   8    4    5 ar
   9    4    8 ar
  10    5    6 ar
  11    5   11 ar
  12    6    7 ar
  13    6   12 1
  14    7   48 1
  15    8    9 ar
  16    8   49 1
  17    9   10 ar
  18    9   50 1
  19   10   11 ar
  20   10   51 1
  21   11   52 1
  22   12   13 1
  23   13   14 ar
  24   13   15 ar
  25   14   16 ar
  26   14   19 1
  27   15   18 ar
  28   16   17 ar
  29   16   53 1
  30   17   18 ar
  31   17   54 1
  32   18   55 1
  33   19   20 ar
  34   19   21 ar
  35   20   24 ar
  36   21   22 ar
  37   21   56 1
  38   22   23 ar
  39   22   57 1
  40   23   24 ar
  41   24   25 1
  42   25   26 1
  43   25   58 1
  44   26   27 1
  45   26   59 1
  46   26   60 1
  47   27   28 1
  48   27   61 1
  49   27   62 1
  50   28   29 1
  51   28   63 1
  52   29   30 1
  53   29   34 1
  54   29   64 1
  55   30   31 1
  56   30   65 1
  57   30   66 1
  58   31   32 1
  59   31   67 1
  60   31   68 1
  61   32   33 1
  62   32   35 1
  63   32   69 1
  64   33   34 1
  65   33   70 1
  66   33   71 1
  67   34   72 1
  68   34   73 1
  69   35   74 1
  70   35   75 1
  71   36   37 ar
  72   36   43 1
  73   36   41 ar
  74   37   38 ar
  75   37   42 1
  76   38   39 ar
  77   38   76 1
  78   39   40 ar
  79   39   77 1
  80   40   41 ar
  81   40   78 1
  82   41   79 1
  83   43   44 2
  84   43   45 2

#	End of record

