#	Name: ASD01880968
#	Creating user name:	WinNT
#	Creation time:	15. 06. 2019 19:41

#	Modifying user name:	WinNT
#	Modification time:	15. 06. 2019 19:41

#	Program:	/corina/corina34_cracker 3.40 0067  02.08.2006

@<TRIPOS>MOLECULE
ASD01880968
  36   38    0    0    0
SMALL
NO_CHARGES


@<TRIPOS>ATOM
   1 N1            -0.0158     1.3128     0.0093 N.ar    
   2 C2             0.0021    -0.0041     0.0020 C.ar    
   3 N3             1.1324    -0.6861    -0.0120 N.ar    
   4 C4             2.3019    -0.0684    -0.0198 C.ar    
   5 C5             2.3347     1.3173    -0.0132 C.ar    
   6 C6             1.1205     2.0083     0.0021 C.ar    
   7 C7             3.6462     2.0594    -0.0212 C.3     
   8 O8             4.7242     1.1214    -0.0356 O.3     
   9 C9             5.9827     1.6292    -0.0443 C.ar    
  10 C10            7.0784     0.7710    -0.0585 C.ar    
  11 C11            8.3510     1.2847    -0.0678 C.ar    
  12 C12            8.5560     2.6687    -0.0631 C.ar    
  13 C13            7.4517     3.5274    -0.0489 C.ar    
  14 C14            6.1756     3.0049    -0.0450 C.ar    
  15 C15            9.7202     0.6519    -0.0839 C.3     
  16 N16           10.6830     1.7593    -0.0878 N.am    
  17 C17           10.0066     2.9207    -0.0758 C.2     
  18 O18           10.5198     4.0230    -0.0758 O.2     
  19 Cl19          -1.5038    -0.8678     0.0118 Cl      
  20 Cl20           7.6873     5.2473    -0.0424 Cl      
  21 C21           12.6350     1.5809    -1.5505 C.3     
  22 C22           12.1414     1.6216    -0.1028 C.3     
  23 C23            1.0978     3.4401     0.0096 C.1     
  24 N24            1.0797     4.5759     0.0155 N.1     
  25 H25            3.2202    -0.6368    -0.0309 H       
  26 H26            3.7014     2.6900    -0.9085 H       
  27 H27            3.7174     2.6811     0.8713 H       
  28 H28            6.9272    -0.2984    -0.0618 H       
  29 H29            5.3229     3.6676    -0.0343 H       
  30 H30            9.8595     0.0374     0.8055 H       
  31 H31            9.8424     0.0459    -0.9817 H       
  32 H32           13.7201     1.4785    -1.5616 H       
  33 H33           12.1845     0.7316    -2.0642 H       
  34 H34           12.3519     2.5037    -2.0569 H       
  35 H35           12.5919     2.4709     0.4109 H       
  36 H36           12.4245     0.6988     0.4036 H       
@<TRIPOS>BOND
   1    1    2 ar
   2    1    6 ar
   3    2    3 ar
   4    2   19 1
   5    3    4 ar
   6    4    5 ar
   7    4   25 1
   8    5    6 ar
   9    5    7 1
  10    6   23 1
  11    7    8 1
  12    7   26 1
  13    7   27 1
  14    8    9 1
  15    9   10 ar
  16    9   14 ar
  17   10   11 ar
  18   10   28 1
  19   11   12 ar
  20   11   15 1
  21   12   13 ar
  22   12   17 1
  23   13   14 ar
  24   13   20 1
  25   14   29 1
  26   15   16 1
  27   15   30 1
  28   15   31 1
  29   16   17 am
  30   16   22 1
  31   17   18 2
  32   21   22 1
  33   21   32 1
  34   21   33 1
  35   21   34 1
  36   22   35 1
  37   22   36 1
  38   23   24 3

#	End of record

