#	Name: ASD03330966
#	Creating user name:	WinNT
#	Creation time:	15. 06. 2019 20:38

#	Modifying user name:	WinNT
#	Modification time:	15. 06. 2019 20:38

#	Program:	/corina/corina34_cracker 3.40 0067  02.08.2006

@<TRIPOS>MOLECULE
ASD03330966
  55   58    0    0    0
SMALL
NO_CHARGES


@<TRIPOS>ATOM
   1 N1            -0.0209     1.4677     0.1557 N.am    
   2 C2            -0.0020    -0.0018     0.1977 C.3     
   3 C3             1.4759    -0.4388     0.2781 C.3     
   4 C4             2.1804     0.8209     0.8473 C.3     
   5 C5             1.3687     1.9593     0.1801 C.3     
   6 C6             1.6358    -1.6083     1.2150 C.2     
   7 O7             2.3277    -1.5017     2.2053 O.2     
   8 N8             1.0099    -2.7727     0.9523 N.am    
   9 C9            -1.1256     2.2377     0.0983 C.2     
  10 O10           -2.2265     1.7212     0.0774 O.2     
  11 N11           -1.4750     5.8407    -0.0295 N.pl3   
  12 C12           -2.0260     4.5978     0.0028 C.2     
  13 C13           -3.5008     4.2910    -0.0112 C.3     
  14 N14           -4.1478     5.0818    -1.0698 N.3     
  15 C15           -4.5742     6.3899    -0.5690 C.3     
  16 C16           -3.6072     6.9107     0.4903 C.3     
  17 C17           -2.2178     7.1006    -0.1245 C.3     
  18 C18           -0.1202     5.6887     0.0305 C.2     
  19 N19            0.1557     4.4064     0.0794 N.2     
  20 C20           -0.9995     3.7054     0.0611 C.2     
  21 C21            0.8715     6.7855     0.0382 C.ar    
  22 C22            1.9148     6.7811     0.9681 C.ar    
  23 C23            2.8386     7.8085     0.9709 C.ar    
  24 C24            2.7321     8.8413     0.0543 C.ar    
  25 C25            1.6979     8.8504    -0.8713 C.ar    
  26 C26            0.7724     7.8256    -0.8866 C.ar    
  27 F27            1.5995     9.8611    -1.7624 F       
  28 F28            3.6378     9.8437     0.0615 F       
  29 F29            2.0195     5.7744     1.8630 F       
  30 C30           -5.2772     4.3496    -1.6582 C.3     
  31 C31            1.1654    -3.9096     1.8631 C.3     
  32 H32           -0.5412    -0.3545     1.0768 H       
  33 H33           -0.4590    -0.4044    -0.7063 H       
  34 H34            1.8607    -0.6814    -0.7125 H       
  35 H35            2.0908     0.8617     1.9329 H       
  36 H36            3.2260     0.8556     0.5415 H       
  37 H37            1.7265     2.1361    -0.8342 H       
  38 H38            1.4380     2.8719     0.7722 H       
  39 H39            0.4565    -2.8580     0.1603 H       
  40 H40           -3.6502     3.2292    -0.2067 H       
  41 H41           -3.9359     4.5495     0.9542 H       
  42 H42           -4.6112     7.0962    -1.3984 H       
  43 H43           -5.5688     6.2993    -0.1324 H       
  44 H44           -3.9680     7.8657     0.8722 H       
  45 H45           -3.5462     6.1938     1.3091 H       
  46 H46           -1.6831     7.8807     0.4173 H       
  47 H47           -2.3186     7.3861    -1.1716 H       
  48 H48            3.6451     7.8064     1.6892 H       
  49 H49           -0.0293     7.8315    -1.6103 H       
  50 H50           -6.0133     4.1338    -0.8838 H       
  51 H51           -5.7373     4.9567    -2.4377 H       
  52 H52           -4.9190     3.4148    -2.0896 H       
  53 H53            0.5899    -4.7563     1.4889 H       
  54 H54            2.2184    -4.1846     1.9245 H       
  55 H55            0.8036    -3.6337     2.8536 H       
@<TRIPOS>BOND
   1    1    2 1
   2    1    5 1
   3    1    9 am
   4    2    3 1
   5    2   32 1
   6    2   33 1
   7    3    4 1
   8    3    6 1
   9    3   34 1
  10    4    5 1
  11    4   35 1
  12    4   36 1
  13    5   37 1
  14    5   38 1
  15    6    7 2
  16    6    8 am
  17    8   31 1
  18    8   39 1
  19    9   10 2
  20    9   20 1
  21   11   12 1
  22   11   17 1
  23   11   18 1
  24   12   13 1
  25   12   20 2
  26   13   14 1
  27   13   40 1
  28   13   41 1
  29   14   15 1
  30   14   30 1
  31   15   16 1
  32   15   42 1
  33   15   43 1
  34   16   17 1
  35   16   44 1
  36   16   45 1
  37   17   46 1
  38   17   47 1
  39   18   19 2
  40   18   21 1
  41   19   20 1
  42   21   22 ar
  43   21   26 ar
  44   22   23 ar
  45   22   29 1
  46   23   24 ar
  47   23   48 1
  48   24   25 ar
  49   24   28 1
  50   25   26 ar
  51   25   27 1
  52   26   49 1
  53   30   50 1
  54   30   51 1
  55   30   52 1
  56   31   53 1
  57   31   54 1
  58   31   55 1

#	End of record

