#	Name: ASD04882243
#	Creating user name:	WinNT
#	Creation time:	15. 06. 2019 20:54

#	Modifying user name:	WinNT
#	Modification time:	15. 06. 2019 20:54

#	Program:	/corina/corina34_cracker 3.40 0067  02.08.2006

@<TRIPOS>MOLECULE
ASD04882243
  71   75    0    0    0
SMALL
NO_CHARGES


@<TRIPOS>ATOM
   1 N1            -0.1365     1.5554    -0.0362 N.am    
   2 C2            -0.0764     0.1558    -0.0457 C.ar    
   3 C3            -1.2527    -0.5953     0.0295 C.ar    
   4 C4            -1.1946    -1.9842     0.0202 C.ar    
   5 C5             0.0216    -2.6251    -0.0630 C.ar    
   6 C6             1.2018    -1.8801    -0.1380 C.ar    
   7 C7             1.1457    -0.4835    -0.1351 C.ar    
   8 N8            -2.4846     0.0485     0.1142 N.3     
   9 C9            -2.6118     0.7769     1.3842 C.3     
  10 C10           -3.5899    -0.9048    -0.0559 C.3     
  11 C11           -4.9202    -0.1483    -0.0359 C.3     
  12 N12           -5.0475     0.5801     1.2341 N.3     
  13 C13           -3.9421     1.5335     1.4042 C.3     
  14 C14            2.5044    -2.5669    -0.2266 C.2     
  15 O15            3.5307    -1.9180    -0.2918 O.2     
  16 C16            0.8450     2.2680     0.5514 C.2     
  17 O17            1.7290     1.6972     1.1630 O.2     
  18 C18            0.8479     3.7311     0.4538 C.2     
  19 N19            2.5570    -3.9136    -0.2354 N.am    
  20 C20           -6.2831     1.2259     1.3191 C.ar    
  21 C21           -6.6352     2.1817     0.3749 C.ar    
  22 C22           -7.1649     0.9094     2.3449 C.ar    
  23 C23           -8.3856     1.5498     2.4260 C.ar    
  24 C24           -8.7309     2.5049     1.4872 C.ar    
  25 C25           -7.8578     2.8185     0.4620 C.ar    
  26 C26            1.7773     4.5699     0.9992 C.2     
  27 C27            1.3911     5.8758     0.6592 C.2     
  28 C28            0.2573     5.7783    -0.0695 C.2     
  29 O29           -0.0641     4.4841    -0.1953 O.3     
  30 C30           -6.7899    -0.1319     3.3677 C.3     
  31 C31            3.8506    -4.5956    -0.3234 C.3     
  32 C32            3.6338    -6.0869    -0.3149 C.ar    
  33 C33            3.8165    -6.8053     0.8483 C.ar    
  34 C34            3.6179    -8.1748     0.8578 C.ar    
  35 C35            3.2353    -8.8324    -0.2976 C.ar    
  36 C36            3.0496    -8.1257    -1.4680 C.ar    
  37 C37            3.2422    -6.7435    -1.4829 C.ar    
  38 C38            3.0450    -5.9799    -2.7334 C.2     
  39 N39            2.6785    -6.6184    -3.8623 N.am    
  40 O40            3.2135    -4.7761    -2.7434 O.2     
  41 H41           -0.8824     2.0117    -0.4561 H       
  42 H42           -2.1052    -2.5620     0.0788 H       
  43 H43            0.0634    -3.7043    -0.0700 H       
  44 H44            2.0560     0.0948    -0.1929 H       
  45 H45           -2.5830     0.0700     2.2133 H       
  46 H46           -1.7891     1.4853     1.4811 H       
  47 H47           -3.4802    -1.4225    -1.0088 H       
  48 H48           -3.5722    -1.6309     0.7569 H       
  49 H49           -4.9490     0.5586    -0.8651 H       
  50 H50           -5.7429    -0.8567    -0.1329 H       
  51 H51           -4.0518     2.0511     2.3571 H       
  52 H52           -3.9598     2.2595     0.5914 H       
  53 H53            1.7384    -4.4313    -0.1834 H       
  54 H54           -5.9537     2.4271    -0.4261 H       
  55 H55           -9.0716     1.3043     3.2232 H       
  56 H56           -9.6866     3.0038     1.5525 H       
  57 H57           -8.1306     3.5649    -0.2694 H       
  58 H58            2.6420     4.2838     1.5796 H       
  59 H59            1.9036     6.7873     0.9295 H       
  60 H60           -0.2965     6.6071    -0.4851 H       
  61 H61           -6.2774     0.3466     4.2022 H       
  62 H62           -7.6912    -0.6263     3.7302 H       
  63 H63           -6.1300    -0.8691     2.9105 H       
  64 H64            4.3516    -4.3065    -1.2473 H       
  65 H65            4.4688    -4.3135     0.5288 H       
  66 H66            4.1155    -6.2980     1.7536 H       
  67 H67            3.7626    -8.7327     1.7711 H       
  68 H68            3.0819    -9.9014    -0.2835 H       
  69 H69            2.7516    -8.6403    -2.3695 H       
  70 H70            2.5441    -7.5790    -3.8543 H       
  71 H71            2.5491    -6.1174    -4.6828 H       
@<TRIPOS>BOND
   1    1    2 1
   2    1   16 am
   3    1   41 1
   4    2    3 ar
   5    2    7 ar
   6    3    4 ar
   7    3    8 1
   8    4    5 ar
   9    4   42 1
  10    5    6 ar
  11    5   43 1
  12    6    7 ar
  13    6   14 1
  14    7   44 1
  15    8    9 1
  16    8   10 1
  17    9   13 1
  18    9   45 1
  19    9   46 1
  20   10   11 1
  21   10   47 1
  22   10   48 1
  23   11   12 1
  24   11   49 1
  25   11   50 1
  26   12   13 1
  27   12   20 1
  28   13   51 1
  29   13   52 1
  30   14   15 2
  31   14   19 am
  32   16   17 2
  33   16   18 1
  34   18   26 2
  35   18   29 1
  36   19   31 1
  37   19   53 1
  38   20   21 ar
  39   20   22 ar
  40   21   25 ar
  41   21   54 1
  42   22   23 ar
  43   22   30 1
  44   23   24 ar
  45   23   55 1
  46   24   25 ar
  47   24   56 1
  48   25   57 1
  49   26   27 1
  50   26   58 1
  51   27   28 2
  52   27   59 1
  53   28   29 1
  54   28   60 1
  55   30   61 1
  56   30   62 1
  57   30   63 1
  58   31   32 1
  59   31   64 1
  60   31   65 1
  61   32   33 ar
  62   32   37 ar
  63   33   34 ar
  64   33   66 1
  65   34   35 ar
  66   34   67 1
  67   35   36 ar
  68   35   68 1
  69   36   37 ar
  70   36   69 1
  71   37   38 1
  72   38   39 am
  73   38   40 2
  74   39   70 1
  75   39   71 1

#	End of record

