#	Name: ASD01815839
#	Creating user name:	WinNT
#	Creation time:	15. 06. 2019 19:34

#	Modifying user name:	WinNT
#	Modification time:	15. 06. 2019 19:34

#	Program:	/corina/corina34_cracker 3.40 0067  02.08.2006

@<TRIPOS>MOLECULE
ASD01815839
  54   59    0    0    0
SMALL
NO_CHARGES


@<TRIPOS>ATOM
   1 C1            -0.2312     1.0885     0.6078 C.ar    
   2 C2            -0.1063    -0.2967     0.5779 C.ar    
   3 C3             1.1054    -0.8877     0.3769 C.ar    
   4 C4             2.2472    -0.0918     0.1969 C.ar    
   5 C5             2.1161     1.3180     0.2280 C.ar    
   6 C6             0.8580     1.8921     0.4364 C.ar    
   7 C7             3.5142    -0.6751    -0.0135 C.ar    
   8 C8             4.6177     0.0907    -0.1879 C.ar    
   9 C9             4.5426     1.4921    -0.1660 C.ar    
  10 C10            3.3097     2.1375     0.0398 C.ar    
  11 C11            5.7322     2.3324    -0.3549 C.2     
  12 N12            5.5600     3.6742    -0.3185 N.am    
  13 C13            4.3287     4.2050    -0.1137 C.2     
  14 N14            3.2615     3.4801     0.0556 N.2     
  15 C15            6.7124     4.5601    -0.5011 C.3     
  16 C16            6.4838     5.4525    -1.7249 C.3     
  17 C17            6.8800     5.4449     0.7381 C.3     
  18 C18            8.0367     6.4205     0.5062 C.3     
  19 O19            7.7751     7.1981    -0.6638 O.3     
  20 C20            7.6559     6.4279    -1.8616 C.3     
  21 O21            6.8313     1.8405    -0.5370 O.2     
  22 C22            3.6424    -2.1763    -0.0442 C.3     
  23 C23            3.3865    -2.6737    -1.4435 C.2     
  24 C24            2.1522    -3.0975    -1.7871 C.2     
  25 O25            7.1659     4.6265     1.8741 O.3     
  26 C26            1.8994    -3.5637    -3.0878 C.2     
  27 C27            2.9057    -3.5868    -4.0027 C.2     
  28 C28            4.1892    -3.1410    -3.6285 C.2     
  29 N29            4.4039    -2.6863    -2.3532 N.pl3   
  30 N30            5.3324    -3.0522    -4.2937 N.2     
  31 C31            6.2734    -2.5605    -3.4841 C.2     
  32 C32            5.7212    -2.3247    -2.2738 C.2     
  33 H33           -1.2029     1.5332     0.7642 H       
  34 H34           -0.9823    -0.9130     0.7163 H       
  35 H35            1.1866    -1.9644     0.3565 H       
  36 H36            0.7491     2.9663     0.4613 H       
  37 H37            5.5736    -0.3861    -0.3465 H       
  38 H38            4.2294     5.2802    -0.0901 H       
  39 H39            7.6120     3.9626    -0.6484 H       
  40 H40            6.4186     4.8337    -2.6199 H       
  41 H41            5.5569     6.0122    -1.5996 H       
  42 H42            5.9610     6.0044     0.9131 H       
  43 H43            8.1331     7.0813     1.3677 H       
  44 H44            8.9625     5.8612     0.3715 H       
  45 H45            8.5767     5.8687    -2.0273 H       
  46 H46            7.4779     7.0939    -2.7059 H       
  47 H47            4.6481    -2.4615     0.2645 H       
  48 H48            2.9145    -2.6171     0.6369 H       
  49 H49            1.3551    -3.0784    -1.0585 H       
  50 H50            7.2845     5.1220     2.6960 H       
  51 H51            0.9108    -3.9027    -3.3601 H       
  52 H52            2.7231    -3.9435    -5.0056 H       
  53 H53            7.3036    -2.3791    -3.7527 H       
  54 H54            6.2252    -1.9257    -1.4060 H       
@<TRIPOS>BOND
   1    1    2 ar
   2    1    6 ar
   3    1   33 1
   4    2    3 ar
   5    2   34 1
   6    3    4 ar
   7    3   35 1
   8    4    5 ar
   9    4    7 ar
  10    5    6 ar
  11    5   10 ar
  12    6   36 1
  13    7    8 ar
  14    7   22 1
  15    8    9 ar
  16    8   37 1
  17    9   10 ar
  18    9   11 1
  19   10   14 1
  20   11   12 am
  21   11   21 2
  22   12   13 1
  23   12   15 1
  24   13   14 2
  25   13   38 1
  26   15   16 1
  27   15   17 1
  28   15   39 1
  29   16   20 1
  30   16   40 1
  31   16   41 1
  32   17   18 1
  33   17   25 1
  34   17   42 1
  35   18   19 1
  36   18   43 1
  37   18   44 1
  38   19   20 1
  39   20   45 1
  40   20   46 1
  41   22   23 1
  42   22   47 1
  43   22   48 1
  44   23   24 2
  45   23   29 1
  46   24   26 1
  47   24   49 1
  48   25   50 1
  49   26   27 2
  50   26   51 1
  51   27   28 1
  52   27   52 1
  53   28   29 1
  54   28   30 2
  55   29   32 1
  56   30   31 1
  57   31   32 2
  58   31   53 1
  59   32   54 1

#	End of record

