#	Name: ASD01150238
#	Creating user name:	WinNT
#	Creation time:	15. 06. 2019 19:03

#	Modifying user name:	WinNT
#	Modification time:	15. 06. 2019 19:03

#	Program:	/corina/corina34_cracker 3.40 0067  02.08.2006

@<TRIPOS>MOLECULE
ASD01150238
  63   67    0    0    0
SMALL
NO_CHARGES


@<TRIPOS>ATOM
   1 C1             0.2784     0.8718     0.1677 C.ar    
   2 C2             0.1588    -0.5141     0.3192 C.ar    
   3 C3            -1.0627    -1.1071     0.3899 C.ar    
   4 C4            -2.2293    -0.3257     0.3108 C.ar    
   5 C5            -2.1132     1.0774     0.1575 C.ar    
   6 C6            -0.8457     1.6677     0.0926 C.ar    
   7 N7            -3.4392    -0.8918     0.3780 N.ar    
   8 C8            -4.5395    -0.1820     0.3059 C.ar    
   9 C9            -4.5140     1.1994     0.1551 C.ar    
  10 C10           -3.2945     1.8588     0.0786 C.ar    
  11 N11            1.5456     1.4543     0.0979 N.3     
  12 C12           -3.2291     3.3293    -0.0823 C.ar    
  13 C13           -5.8024     1.9771     0.0761 C.3     
  14 C14           -6.4287     1.7873    -1.3069 C.3     
  15 O15           -6.7061     1.5047     1.0772 O.3     
  16 C16           -5.8702    -0.8846     0.3886 C.3     
  17 C17           -2.6847     4.1205     0.9296 C.ar    
  18 C18           -2.6256     5.4897     0.7748 C.ar    
  19 C19           -3.1064     6.0798    -0.3833 C.ar    
  20 C20           -3.6483     5.2982    -1.3914 C.ar    
  21 C21           -3.7065     3.9276    -1.2486 C.ar    
  22 F22           -3.0472     7.4215    -0.5299 F       
  23 C23            2.5991     0.4367     0.2033 C.3     
  24 C24            3.9649     1.0892    -0.0223 C.3     
  25 C25            4.1809     2.1848     1.0254 C.3     
  26 C26            3.0442     3.2059     0.9266 C.3     
  27 C27            1.7051     2.4920     1.1246 C.3     
  28 C28           -7.6608     2.3720     1.5054 C.ar    
  29 C29           -8.4940     2.0213     2.5539 C.ar    
  30 C30           -9.4732     2.9151     2.9904 C.ar    
  31 C31           -9.6053     4.1571     2.3664 C.ar    
  32 C32           -8.7692     4.4961     1.3222 C.ar    
  33 C33           -7.7963     3.6118     0.8948 C.ar    
  34 C34          -10.3392     2.5595     4.0740 C.1     
  35 N35          -11.0262     2.2774     4.9336 N.1     
  36 H36            1.0496    -1.1216     0.3804 H       
  37 H37           -1.1370    -2.1782     0.5064 H       
  38 H38           -0.7487     2.7370    -0.0242 H       
  39 H39           -5.5988     3.0352     0.2406 H       
  40 H40           -5.7826     2.2337    -2.0627 H       
  41 H41           -6.5443     0.7227    -1.5104 H       
  42 H42           -7.4056     2.2703    -1.3327 H       
  43 H43           -6.1514    -1.0083     1.4344 H       
  44 H44           -6.6272    -0.2904    -0.1234 H       
  45 H45           -5.7945    -1.8631    -0.0855 H       
  46 H46           -2.3104     3.6616     1.8328 H       
  47 H47           -2.2043     6.1030     1.5576 H       
  48 H48           -4.0220     5.7627    -2.2919 H       
  49 H49           -4.1286     3.3193    -2.0349 H       
  50 H50            2.5712    -0.0136     1.1955 H       
  51 H51            2.4360    -0.3342    -0.5499 H       
  52 H52            4.7477     0.3366     0.0714 H       
  53 H53            3.9984     1.5278    -1.0196 H       
  54 H54            4.1863     1.7408     2.0209 H       
  55 H55            5.1337     2.6814     0.8419 H       
  56 H56            3.1693     3.9655     1.6982 H       
  57 H57            3.0633     3.6777    -0.0558 H       
  58 H58            0.8928     3.2139     1.0407 H       
  59 H59            1.6814     2.0321     2.1126 H       
  60 H60           -8.3870     1.0589     3.0323 H       
  61 H61          -10.3617     4.8519     2.7004 H       
  62 H62           -8.8726     5.4569     0.8400 H       
  63 H63           -7.1446     3.8828     0.0773 H       
@<TRIPOS>BOND
   1    1    2 ar
   2    1   11 1
   3    1    6 ar
   4    2    3 ar
   5    2   36 1
   6    3    4 ar
   7    3   37 1
   8    4    5 ar
   9    4    7 ar
  10    5    6 ar
  11    5   10 ar
  12    6   38 1
  13    7    8 ar
  14    8    9 ar
  15    8   16 1
  16    9   10 ar
  17    9   13 1
  18   10   12 1
  19   11   23 1
  20   11   27 1
  21   12   17 ar
  22   12   21 ar
  23   13   14 1
  24   13   15 1
  25   13   39 1
  26   14   40 1
  27   14   41 1
  28   14   42 1
  29   15   28 1
  30   16   43 1
  31   16   44 1
  32   16   45 1
  33   17   18 ar
  34   17   46 1
  35   18   19 ar
  36   18   47 1
  37   19   20 ar
  38   19   22 1
  39   20   21 ar
  40   20   48 1
  41   21   49 1
  42   23   24 1
  43   23   50 1
  44   23   51 1
  45   24   25 1
  46   24   52 1
  47   24   53 1
  48   25   26 1
  49   25   54 1
  50   25   55 1
  51   26   27 1
  52   26   56 1
  53   26   57 1
  54   27   58 1
  55   27   59 1
  56   28   29 ar
  57   28   33 ar
  58   29   30 ar
  59   29   60 1
  60   30   31 ar
  61   30   34 1
  62   31   32 ar
  63   31   61 1
  64   32   33 ar
  65   32   62 1
  66   33   63 1
  67   34   35 3

#	End of record

