#	Name: ASD05170114
#	Creating user name:	WinNT
#	Creation time:	15. 06. 2019 20:57

#	Modifying user name:	WinNT
#	Modification time:	15. 06. 2019 20:57

#	Program:	/corina/corina34_cracker 3.40 0067  02.08.2006

@<TRIPOS>MOLECULE
ASD05170114
  42   45    0    0    0
SMALL
NO_CHARGES


@<TRIPOS>ATOM
   1 C1            -0.0346     1.3808    -0.0557 C.ar    
   2 C2            -0.0183    -0.0028    -0.0717 C.ar    
   3 C3             1.2105    -0.6507    -0.0778 C.ar    
   4 C4             2.3700     0.1003    -0.0678 C.ar    
   5 N5             2.3212     1.4191    -0.0526 N.ar    
   6 C6             1.1708     2.0710    -0.0463 C.ar    
   7 O7             1.1678     3.4279    -0.0306 O.3     
   8 C8             2.4396     4.0795    -0.0216 C.3     
   9 C9             2.2388     5.5729    -0.0045 C.2     
  10 C10            1.0057     6.2387     0.0074 C.2     
  11 N11            3.1881     6.4795     0.0075 N.2     
  12 C12            1.3206     7.5679     0.0185 C.2     
  13 C13            0.4773     8.7726     0.0381 C.2     
  14 N14            2.6954     7.6558     0.0294 N.pl3   
  15 C15            3.3727     8.9571     0.0785 C.3     
  16 C16            2.5017    10.0049    -0.6130 C.3     
  17 N17            1.1094     9.9525    -0.1731 N.am    
  18 O18           -0.7218     8.7131     0.2328 O.2     
  19 C19            3.5974     9.3613     1.5369 C.3     
  20 Cl20           1.2883    -2.3849    -0.0972 Cl      
  21 C21            0.4175    11.1429     0.0389 C.ar    
  22 N22            0.3758    11.6700     1.2527 N.ar    
  23 C23           -0.2676    12.7955     1.4964 C.ar    
  24 C24           -0.9258    13.4682     0.4856 C.ar    
  25 C25           -0.9062    12.9487    -0.8014 C.ar    
  26 C26           -0.2180    11.7694    -1.0270 C.ar    
  27 H27           -0.9721     1.9169    -0.0550 H       
  28 H28           -0.9398    -0.5660    -0.0789 H       
  29 H29            3.3282    -0.3979    -0.0721 H       
  30 H30            2.9962     3.7775     0.8656 H       
  31 H31            2.9983     3.7981    -0.9143 H       
  32 H32            0.0203     5.7968     0.0074 H       
  33 H33            4.3329     8.8872    -0.4326 H       
  34 H34            2.9024    10.9951    -0.3962 H       
  35 H35            2.5393     9.8395    -1.6898 H       
  36 H36            4.2155     8.6115     2.0307 H       
  37 H37            4.1004    10.3277     1.5727 H       
  38 H38            2.6364     9.4328     2.0463 H       
  39 H39           -0.2801    13.1958     2.4994 H       
  40 H40           -1.4506    14.3887     0.6945 H       
  41 H41           -1.4133    13.4554    -1.6092 H       
  42 H42           -0.1787    11.3395    -2.0170 H       
@<TRIPOS>BOND
   1    1    2 ar
   2    1    6 ar
   3    1   27 1
   4    2    3 ar
   5    2   28 1
   6    3    4 ar
   7    3   20 1
   8    4    5 ar
   9    4   29 1
  10    5    6 ar
  11    6    7 1
  12    7    8 1
  13    8    9 1
  14    8   30 1
  15    8   31 1
  16    9   11 2
  17    9   10 1
  18   10   12 2
  19   10   32 1
  20   11   14 1
  21   12   14 1
  22   12   13 1
  23   13   17 am
  24   13   18 2
  25   14   15 1
  26   15   16 1
  27   15   19 1
  28   15   33 1
  29   16   17 1
  30   16   34 1
  31   16   35 1
  32   17   21 1
  33   19   36 1
  34   19   37 1
  35   19   38 1
  36   21   22 ar
  37   21   26 ar
  38   22   23 ar
  39   23   24 ar
  40   23   39 1
  41   24   25 ar
  42   24   40 1
  43   25   26 ar
  44   25   41 1
  45   26   42 1

#	End of record

