#	Name: ASD02820001
#	Creating user name:	WinNT
#	Creation time:	15. 06. 2019 20:26

#	Modifying user name:	WinNT
#	Modification time:	15. 06. 2019 20:26

#	Program:	/corina/corina34_cracker 3.40 0067  02.08.2006

@<TRIPOS>MOLECULE
ASD02820001
  28   29    0    0    0
SMALL
NO_CHARGES


@<TRIPOS>ATOM
   1 C1             1.3857     1.2271    -0.7736 C.ar    
   2 C2             1.8843    -0.0543    -0.6330 C.ar    
   3 C3             2.6913    -0.3679     0.4462 C.ar    
   4 C4             2.9986     0.6016     1.3841 C.ar    
   5 C5             2.4995     1.8827     1.2425 C.ar    
   6 C6             1.6932     2.1954     0.1639 C.ar    
   7 C7             1.1497     3.5925     0.0099 C.3     
   8 C8             0.5005     3.7381    -1.3679 C.3     
   9 C9             0.1209     3.8521     1.0800 C.ar    
  10 C10            0.1883     5.0062     1.8379 C.ar    
  11 C11           -0.7550     5.2449     2.8194 C.ar    
  12 C12           -1.7672     4.3286     3.0432 C.ar    
  13 C13           -1.8344     3.1739     2.2841 C.ar    
  14 C14           -0.8933     2.9386     1.2995 C.ar    
  15 Cl15          -0.9599     2.6845    -1.4585 Cl      
  16 Cl16           0.0189     5.4562    -1.6268 Cl      
  17 Cl17           1.6772     3.2451    -2.6419 Cl      
  18 Cl18          -2.9520     4.6273     4.2763 Cl      
  19 Cl19           3.3174    -1.9773     0.6236 Cl      
  20 H20            0.7594     1.4731    -1.6183 H       
  21 H21            1.6437    -0.8108    -1.3653 H       
  22 H22            3.6282     0.3574     2.2269 H       
  23 H23            2.7393     2.6396     1.9746 H       
  24 H24            1.9633     4.3115     0.1060 H       
  25 H25            0.9785     5.7215     1.6631 H       
  26 H26           -0.7018     6.1463     3.4119 H       
  27 H27           -2.6243     2.4582     2.4583 H       
  28 H28           -0.9457     2.0373     0.7069 H       
@<TRIPOS>BOND
   1    1    2 ar
   2    1    6 ar
   3    1   20 1
   4    2    3 ar
   5    2   21 1
   6    3    4 ar
   7    3   19 1
   8    4    5 ar
   9    4   22 1
  10    5    6 ar
  11    5   23 1
  12    6    7 1
  13    7    8 1
  14    7    9 1
  15    7   24 1
  16    8   15 1
  17    8   16 1
  18    8   17 1
  19    9   10 ar
  20    9   14 ar
  21   10   11 ar
  22   10   25 1
  23   11   12 ar
  24   11   26 1
  25   12   13 ar
  26   12   18 1
  27   13   14 ar
  28   13   27 1
  29   14   28 1

#	End of record

