#	Name: ASD03240299
#	Creating user name:	WinNT
#	Creation time:	15. 06. 2019 20:34

#	Modifying user name:	WinNT
#	Modification time:	15. 06. 2019 20:34

#	Program:	/corina/corina34_cracker 3.40 0067  02.08.2006

@<TRIPOS>MOLECULE
ASD03240299
  97  101    0    0    0
SMALL
NO_CHARGES


@<TRIPOS>ATOM
   1 C1             0.0785     1.5245     0.6296 C.2     
   2 N2             0.1834     0.2879     1.2214 N.pl3   
   3 C3            -2.6672     4.0270     0.1599 C.3     
   4 C4            -1.2354     3.5091     0.0089 C.3     
   5 N5            -1.1236     2.1915     0.6395 N.pl3   
   6 N6             1.1201     2.0667     0.0639 N.2     
   7 N7            -2.7790     5.3446    -0.4707 N.pl3   
   8 C8            -3.9932     6.0184    -0.4607 C.ar    
   9 C9            -4.1001     7.2800    -1.0646 C.ar    
  10 C10           -5.3153     7.9502    -1.0525 C.ar    
  11 C11           -6.4245     7.3648    -0.4394 C.ar    
  12 C12           -6.3086     6.1066     0.1602 C.ar    
  13 C13           -5.1042     5.4399     0.1428 C.ar    
  14 C14           -7.7183     8.0734    -0.4235 C.2     
  15 N15           -8.7890     7.5080     0.1685 N.am    
  16 O16           -7.8187     9.1676    -0.9445 O.2     
  17 C17           -9.9865     8.2258     0.2828 C.ar    
  18 C18          -11.2040     7.5648     0.1875 C.ar    
  19 C19           -9.9560     9.5976     0.4969 C.ar    
  20 C20          -11.1361    10.3050     0.6099 C.ar    
  21 C21          -12.3539     9.6449     0.5090 C.ar    
  22 C22          -12.3843     8.2722     0.2995 C.ar    
  23 N23          -13.5498    10.3616     0.6240 N.pl3   
  24 C24          -14.8343     9.6651     0.5175 C.3     
  25 C25          -13.5177    11.8085     0.8509 C.3     
  26 C26           -2.9174     7.8963    -1.7138 C.ar    
  27 C27           -3.0152     8.4039    -3.0081 C.ar    
  28 C28           -1.9116     8.9766    -3.6071 C.ar    
  29 C29           -0.7100     9.0470    -2.9255 C.ar    
  30 C30           -0.6071     8.5445    -1.6409 C.ar    
  31 C31           -1.7058     7.9751    -1.0297 C.ar    
  32 C32          -13.5097    12.5249    -0.4749 C.ar    
  33 C33          -15.2717     9.2062     1.8846 C.ar    
  34 C34          -14.7029    12.8789    -1.0765 C.ar    
  35 C35          -14.6956    13.5360    -2.2927 C.ar    
  36 C36          -13.4951    13.8394    -2.9071 C.ar    
  37 C37          -12.3018    13.4861    -2.3052 C.ar    
  38 C38          -12.3091    12.8329    -1.0869 C.ar    
  39 C39          -16.0481    10.0324     2.6755 C.ar    
  40 C40          -16.4493     9.6114     3.9296 C.ar    
  41 C41          -16.0745     8.3640     4.3926 C.ar    
  42 C42          -15.2990     7.5374     3.6013 C.ar    
  43 C43          -14.9014     7.9566     2.3455 C.ar    
  44 C44          -13.4871    14.5548    -4.2335 C.3     
  45 C45          -16.5111     7.9054     5.7601 C.3     
  46 C46          -17.3467     6.6306     5.6279 C.3     
  47 C47          -15.2782     7.6202     6.6201 C.3     
  48 C48          -12.7375    15.8812    -4.0930 C.3     
  49 C49          -12.7891    13.6828    -5.2791 C.3     
  50 H50            1.0325    -0.1810     1.2179 H       
  51 H51           -0.5917    -0.1156     1.6424 H       
  52 H52           -3.3569     3.3339    -0.3219 H       
  53 H53           -2.9143     4.1086     1.2183 H       
  54 H54           -0.9883     3.4275    -1.0496 H       
  55 H55           -0.5457     4.2022     0.4907 H       
  56 H56           -1.8978     1.7898     1.0640 H       
  57 H57            1.0461     2.9391    -0.3536 H       
  58 H58           -2.0048     5.7463    -0.8952 H       
  59 H59           -5.4025     8.9219    -1.5158 H       
  60 H60           -7.1674     5.6550     0.6345 H       
  61 H61           -5.0199     4.4683     0.6069 H       
  62 H62           -8.7303     6.6041     0.5155 H       
  63 H63          -11.2276     6.4973     0.0253 H       
  64 H64           -9.0090    10.1109     0.5754 H       
  65 H65          -11.1124    11.3718     0.7772 H       
  66 H66          -13.3311     7.7587     0.2210 H       
  67 H67          -15.5820    10.3428     0.1053 H       
  68 H68          -14.7260     8.8013    -0.1384 H       
  69 H69          -14.3985    12.1067     1.4197 H       
  70 H70          -12.6189    12.0688     1.4099 H       
  71 H71           -3.9527     8.3488    -3.5415 H       
  72 H72           -1.9862     9.3703    -4.6100 H       
  73 H73            0.1511     9.4958    -3.3982 H       
  74 H74            0.3336     8.6018    -1.1135 H       
  75 H75           -1.6244     7.5834    -0.0266 H       
  76 H76          -15.6409    12.6419    -0.5964 H       
  77 H77          -15.6278    13.8120    -2.7629 H       
  78 H78          -11.3639    13.7228    -2.7854 H       
  79 H79          -11.3769    12.5569    -0.6166 H       
  80 H80          -16.3409    11.0070     2.3138 H       
  81 H81          -17.0552    10.2572     4.5478 H       
  82 H82          -15.0059     6.5629     3.9632 H       
  83 H83          -14.2955     7.3108     1.7273 H       
  84 H84          -14.5126    14.7485    -4.5480 H       
  85 H85          -17.1099     8.6851     6.2308 H       
  86 H86          -16.7478     5.8508     5.1572 H       
  87 H87          -17.6624     6.2989     6.6170 H       
  88 H88          -18.2250     6.8337     5.0153 H       
  89 H89          -15.5939     7.2885     7.6092 H       
  90 H90          -14.6794     6.8405     6.1494 H       
  91 H91          -14.6829     8.5284     6.7142 H       
  92 H92          -12.7318    16.3986    -5.0523 H       
  93 H93          -13.2348    16.5024    -3.3481 H       
  94 H94          -11.7120    15.6874    -3.7785 H       
  95 H95          -13.3231    12.7378    -5.3792 H       
  96 H96          -12.7833    14.2002    -6.2384 H       
  97 H97          -11.7636    13.4891    -4.9646 H       
@<TRIPOS>BOND
   1    1    2 1
   2    1    6 2
   3    1    5 1
   4    2   50 1
   5    2   51 1
   6    3    4 1
   7    3    7 1
   8    3   52 1
   9    3   53 1
  10    4    5 1
  11    4   54 1
  12    4   55 1
  13    5   56 1
  14    6   57 1
  15    7    8 1
  16    7   58 1
  17    8    9 ar
  18    8   13 ar
  19    9   10 ar
  20    9   26 1
  21   10   11 ar
  22   10   59 1
  23   11   12 ar
  24   11   14 1
  25   12   13 ar
  26   12   60 1
  27   13   61 1
  28   14   15 am
  29   14   16 2
  30   15   17 1
  31   15   62 1
  32   17   18 ar
  33   17   19 ar
  34   18   22 ar
  35   18   63 1
  36   19   20 ar
  37   19   64 1
  38   20   21 ar
  39   20   65 1
  40   21   22 ar
  41   21   23 1
  42   22   66 1
  43   23   24 1
  44   23   25 1
  45   24   33 1
  46   24   67 1
  47   24   68 1
  48   25   32 1
  49   25   69 1
  50   25   70 1
  51   26   27 ar
  52   26   31 ar
  53   27   28 ar
  54   27   71 1
  55   28   29 ar
  56   28   72 1
  57   29   30 ar
  58   29   73 1
  59   30   31 ar
  60   30   74 1
  61   31   75 1
  62   32   34 ar
  63   32   38 ar
  64   33   39 ar
  65   33   43 ar
  66   34   35 ar
  67   34   76 1
  68   35   36 ar
  69   35   77 1
  70   36   37 ar
  71   36   44 1
  72   37   38 ar
  73   37   78 1
  74   38   79 1
  75   39   40 ar
  76   39   80 1
  77   40   41 ar
  78   40   81 1
  79   41   42 ar
  80   41   45 1
  81   42   43 ar
  82   42   82 1
  83   43   83 1
  84   44   48 1
  85   44   49 1
  86   44   84 1
  87   45   46 1
  88   45   47 1
  89   45   85 1
  90   46   86 1
  91   46   87 1
  92   46   88 1
  93   47   89 1
  94   47   90 1
  95   47   91 1
  96   48   92 1
  97   48   93 1
  98   48   94 1
  99   49   95 1
 100   49   96 1
 101   49   97 1

#	End of record

