#	Name: ASD05730019
#	Creating user name:	WinNT
#	Creation time:	15. 06. 2019 21:02

#	Modifying user name:	WinNT
#	Modification time:	15. 06. 2019 21:02

#	Program:	/corina/corina34_cracker 3.40 0067  02.08.2006

@<TRIPOS>MOLECULE
ASD05730019
  55   58    0    0    0
SMALL
NO_CHARGES


@<TRIPOS>ATOM
   1 N1            -0.0148     1.3236     0.0132 N.ar    
   2 C2             0.0025    -0.0048     0.0106 C.ar    
   3 N3             1.1290    -0.7020     0.0089 N.ar    
   4 C4             2.3019    -0.0817     0.0096 C.ar    
   5 C5             2.3226     1.3304     0.0122 C.ar    
   6 C6             1.1063     2.0224     0.0141 C.ar    
   7 N7             3.4844    -0.7755     0.0082 N.am    
   8 C8             4.6645    -0.1305     0.0099 C.2     
   9 C9             4.7422     1.2769     0.0125 C.2     
  10 C10            3.6071     2.0238     0.0126 C.2     
  11 N11           -1.2001    -0.6851     0.0103 N.pl3   
  12 C12           -2.4019     0.0194     0.1316 C.ar    
  13 C13           -2.4730     1.1649     0.9203 C.ar    
  14 C14           -3.6858     1.8287     1.0087 C.ar    
  15 C15           -4.7769     1.3368     0.3170 C.ar    
  16 N16           -4.6768     0.2486    -0.4215 N.ar    
  17 C17           -3.5411    -0.4098    -0.5376 C.ar    
  18 C18           -6.0993     2.0536     0.4085 C.3     
  19 O19            5.6953    -0.7809     0.0094 O.2     
  20 C20            3.4621    -2.2403     0.0055 C.3     
  21 C21           -7.1688     3.9485     1.4137 C.3     
  22 O22           -5.9650     3.1944     1.2585 O.3     
  23 C23           -6.9090     5.1393     2.3387 C.3     
  24 N24           -5.9555     6.0564     1.7002 N.3     
  25 C25           -5.6815     7.2144     2.5615 C.3     
  26 C26            4.1768    -2.7760    -1.2475 C.3     
  27 C27            5.3639    -3.6254    -0.7484 C.3     
  28 C28            4.9529    -4.0481     0.6839 C.3     
  29 C29            4.2399    -2.7829     1.2223 C.3     
  30 H30            1.0846     3.1022     0.0165 H       
  31 H31            5.7066     1.7630     0.0141 H       
  32 H32            3.6541     3.1028     0.0139 H       
  33 H33           -1.2107    -1.6513    -0.0741 H       
  34 H34           -1.6043     1.5267     1.4503 H       
  35 H35           -3.7779     2.7202     1.6115 H       
  36 H36           -3.4980    -1.2972    -1.1517 H       
  37 H37           -6.4074     2.3759    -0.5862 H       
  38 H38           -6.8502     1.3796     0.8208 H       
  39 H39            2.4327    -2.5979     0.0297 H       
  40 H40           -7.4991     4.3101     0.4400 H       
  41 H41           -7.9419     3.3138     1.8470 H       
  42 H42           -7.8458     5.6633     2.5283 H       
  43 H43           -6.4946     4.7831     3.2818 H       
  44 H44           -5.1017     5.5776     1.4556 H       
  45 H45           -6.6098     7.7528     2.7526 H       
  46 H46           -5.2586     6.8726     3.5062 H       
  47 H47           -4.9728     7.8771     2.0648 H       
  48 H48            3.4945    -3.3942    -1.8309 H       
  49 H49            4.5403    -1.9461    -1.8535 H       
  50 H50            5.4981    -4.5027    -1.3814 H       
  51 H51            6.2759    -3.0290    -0.7232 H       
  52 H52            4.2674    -4.8951     0.6549 H       
  53 H53            5.8318    -4.2815     1.2849 H       
  54 H54            4.9703    -2.0504     1.5657 H       
  55 H55            3.5537    -3.0453     2.0275 H       
@<TRIPOS>BOND
   1    1    2 ar
   2    1    6 ar
   3    2    3 ar
   4    2   11 1
   5    3    4 ar
   6    4    5 ar
   7    4    7 1
   8    5    6 ar
   9    5   10 1
  10    6   30 1
  11    7    8 am
  12    7   20 1
  13    8    9 1
  14    8   19 2
  15    9   10 2
  16    9   31 1
  17   10   32 1
  18   11   12 1
  19   11   33 1
  20   12   13 ar
  21   12   17 ar
  22   13   14 ar
  23   13   34 1
  24   14   15 ar
  25   14   35 1
  26   15   16 ar
  27   15   18 1
  28   16   17 ar
  29   17   36 1
  30   18   22 1
  31   18   37 1
  32   18   38 1
  33   20   26 1
  34   20   29 1
  35   20   39 1
  36   21   22 1
  37   21   23 1
  38   21   40 1
  39   21   41 1
  40   23   24 1
  41   23   42 1
  42   23   43 1
  43   24   25 1
  44   24   44 1
  45   25   45 1
  46   25   46 1
  47   25   47 1
  48   26   27 1
  49   26   48 1
  50   26   49 1
  51   27   28 1
  52   27   50 1
  53   27   51 1
  54   28   29 1
  55   28   52 1
  56   28   53 1
  57   29   54 1
  58   29   55 1

#	End of record

