#	Name: ASD01209351
#	Creating user name:	WinNT
#	Creation time:	15. 06. 2019 19:11

#	Modifying user name:	WinNT
#	Modification time:	15. 06. 2019 19:11

#	Program:	/corina/corina34_cracker 3.40 0067  02.08.2006

@<TRIPOS>MOLECULE
ASD01209351
  45   47    0    0    0
SMALL
NO_CHARGES


@<TRIPOS>ATOM
   1 C1            -0.0184     1.5028     0.0103 C.2     
   2 C2             0.0021    -0.0041     0.0020 C.3     
   3 O3             1.0197     2.1211     0.0037 O.2     
   4 O4            -1.1898     2.1580     0.0194 O.3     
   5 S5             1.7203    -0.5854    -0.0175 S.3     
   6 N6             2.8115    -3.0236    -0.3978 N.am    
   7 C7             1.5403    -2.3904    -0.0255 C.3     
   8 C8             1.2182    -2.8873     1.3646 C.2     
   9 C9             2.2129    -3.7127     1.7238 C.2     
  10 C10            3.1990    -3.7971     0.6331 C.2     
  11 C11            2.3053    -4.4297     3.0194 C.ar    
  12 C12            2.2432    -5.8215     3.0545 C.ar    
  13 C13            2.3302    -6.4832     4.2625 C.ar    
  14 C14            2.4786    -5.7677     5.4370 C.ar    
  15 C15            2.5403    -4.3861     5.4081 C.ar    
  16 C16            2.4602    -3.7142     4.2052 C.ar    
  17 O17            4.2132    -4.4670     0.6600 O.2     
  18 C18            3.5259    -2.8498    -1.6650 C.3     
  19 C19            4.4805    -1.6895    -1.5485 C.ar    
  20 C20            5.7756    -1.9023    -1.1135 C.ar    
  21 C21            6.6525    -0.8403    -1.0058 C.ar    
  22 C22            6.2328     0.4405    -1.3346 C.ar    
  23 C23            4.9328     0.6513    -1.7708 C.ar    
  24 C24            4.0614    -0.4148    -1.8821 C.ar    
  25 O25            7.0934     1.4869    -1.2291 O.3     
  26 C26            6.5926     2.7772    -1.5845 C.3     
  27 H27           -0.4983    -0.3791     0.8948 H       
  28 H28           -0.5153    -0.3696    -0.8850 H       
  29 H29           -1.1523     3.1243     0.0245 H       
  30 H30            0.7557    -2.6859    -0.7220 H       
  31 H31            0.3528    -2.6274     1.9561 H       
  32 H32            2.1270    -6.3811     2.1382 H       
  33 H33            2.2818    -7.5618     4.2909 H       
  34 H34            2.5462    -6.2896     6.3800 H       
  35 H35            2.6556    -3.8323     6.3281 H       
  36 H36            2.5134    -2.6357     4.1833 H       
  37 H37            4.0838    -3.7575    -1.8950 H       
  38 H38            2.8091    -2.6520    -2.4620 H       
  39 H39            6.1017    -2.8994    -0.8574 H       
  40 H40            7.6639    -1.0069    -0.6657 H       
  41 H41            4.6036     1.6474    -2.0272 H       
  42 H42            3.0507    -0.2519    -2.2261 H       
  43 H43            6.2696     2.7675    -2.6255 H       
  44 H44            5.7470     3.0278    -0.9440 H       
  45 H45            7.3792     3.5206    -1.4551 H       
@<TRIPOS>BOND
   1    1    2 1
   2    1    3 2
   3    1    4 1
   4    2    5 1
   5    2   27 1
   6    2   28 1
   7    4   29 1
   8    5    7 1
   9    6    7 1
  10    6   10 am
  11    6   18 1
  12    7    8 1
  13    7   30 1
  14    8    9 2
  15    8   31 1
  16    9   10 1
  17    9   11 1
  18   10   17 2
  19   11   12 ar
  20   11   16 ar
  21   12   13 ar
  22   12   32 1
  23   13   14 ar
  24   13   33 1
  25   14   15 ar
  26   14   34 1
  27   15   16 ar
  28   15   35 1
  29   16   36 1
  30   18   19 1
  31   18   37 1
  32   18   38 1
  33   19   20 ar
  34   19   24 ar
  35   20   21 ar
  36   20   39 1
  37   21   22 ar
  38   21   40 1
  39   22   23 ar
  40   22   25 1
  41   23   24 ar
  42   23   41 1
  43   24   42 1
  44   25   26 1
  45   26   43 1
  46   26   44 1
  47   26   45 1

#	End of record

