#	Name: ASD03710001
#	Creating user name:	WinNT
#	Creation time:	15. 06. 2019 20:43

#	Modifying user name:	WinNT
#	Modification time:	15. 06. 2019 20:43

#	Program:	/corina/corina34_cracker 3.40 0067  02.08.2006

@<TRIPOS>MOLECULE
ASD03710001
  48   48    0    0    0
SMALL
NO_CHARGES


@<TRIPOS>ATOM
   1 C1            -0.8199     1.7207    -1.2725 C.ar    
   2 C2            -1.0838     0.4095    -0.8969 C.ar    
   3 C3            -2.3424     0.0629    -0.4219 C.ar    
   4 C4            -3.3370     1.0277    -0.3219 C.ar    
   5 C5            -3.0729     2.3391    -0.6967 C.ar    
   6 C6            -1.8129     2.6865    -1.1676 C.ar    
   7 O7            -1.5540     3.9719    -1.5349 O.3     
   8 P8            -1.0103     4.8987    -0.3360 P.3     
   9 O9            -4.5709     0.6878     0.1429 O.3     
  10 P10           -4.7277     0.8177     1.7400 P.3     
  11 O11           -2.6013    -1.2224    -0.0546 O.3     
  12 P12           -3.1374    -2.1512    -1.2554 P.3     
  13 O13           -0.1089    -0.5361    -0.9949 O.3     
  14 P14            0.7843    -0.6959     0.3350 P.3     
  15 O15            0.4137     2.0604    -1.7382 O.3     
  16 P16            0.5733     1.9181    -3.3340 P.3     
  17 O17           -4.0479     3.2845    -0.5992 O.3     
  18 O18           -3.6818     0.0094     2.4057 O.2     
  19 P19           -4.9639     3.4187    -1.9163 P.3     
  20 O20           -1.9704     4.8627     0.7898 O.2     
  21 O21            0.4196     4.3499     0.1605 O.3     
  22 O22           -0.8519     6.4134    -0.8580 O.3     
  23 O23           -0.3992     2.9714    -4.0666 O.3     
  24 O24            2.0996     2.2179    -3.7495 O.3     
  25 O25            0.2110     0.5433    -3.7453 O.2     
  26 O26           -0.0965    -0.9809     1.4897 O.2     
  27 O27            1.8239    -1.9098     0.1406 O.3     
  28 O28            1.5963     0.6683     0.6033 O.3     
  29 O29           -3.3014    -3.6646    -0.7311 O.3     
  30 O30           -4.5630    -1.6019    -1.7634 O.3     
  31 O31           -2.1691    -2.1189    -2.3742 O.2     
  32 O32           -4.5691     2.3608     2.1711 O.3     
  33 O33           -6.1809     0.2837     2.1817 O.3     
  34 O34           -4.0612     3.9283    -3.1482 O.3     
  35 O35           -5.5498     2.1003    -2.2462 O.2     
  36 O36           -6.1454     4.4777    -1.6427 O.3     
  37 H37            1.0994     4.3451    -0.5273 H       
  38 H38           -0.5275     7.0290    -0.1865 H       
  39 H39           -0.2188     3.8947    -3.8430 H       
  40 H40            2.2692     2.1502    -4.6991 H       
  41 H41            2.3961    -2.0639     0.9048 H       
  42 H42            2.1948     0.9173    -0.1143 H       
  43 H43           -3.6216    -4.2813    -1.4035 H       
  44 H44           -5.2326    -1.5438    -1.0681 H       
  45 H45           -5.2704     2.9366     1.8370 H       
  46 H46           -6.3453     0.3324     3.1334 H       
  47 H47           -3.5933     4.7569    -2.9766 H       
  48 H48           -6.7380     4.6090    -2.3955 H       
@<TRIPOS>BOND
   1    1    2 ar
   2    1   15 1
   3    1    6 ar
   4    2    3 ar
   5    2   13 1
   6    3    4 ar
   7    3   11 1
   8    4    5 ar
   9    4    9 1
  10    5    6 ar
  11    5   17 1
  12    6    7 1
  13    7    8 1
  14    8   20 2
  15    8   21 1
  16    8   22 1
  17    9   10 1
  18   10   18 2
  19   10   32 1
  20   10   33 1
  21   11   12 1
  22   12   29 1
  23   12   30 1
  24   12   31 2
  25   13   14 1
  26   14   26 2
  27   14   27 1
  28   14   28 1
  29   15   16 1
  30   16   23 1
  31   16   24 1
  32   16   25 2
  33   17   19 1
  34   19   34 1
  35   19   35 2
  36   19   36 1
  37   21   37 1
  38   22   38 1
  39   23   39 1
  40   24   40 1
  41   27   41 1
  42   28   42 1
  43   29   43 1
  44   30   44 1
  45   32   45 1
  46   33   46 1
  47   34   47 1
  48   36   48 1

#	End of record

