#	Name: ASD01410705
#	Creating user name:	WinNT
#	Creation time:	15. 06. 2019 19:18

#	Modifying user name:	WinNT
#	Modification time:	15. 06. 2019 19:18

#	Program:	/corina/corina34_cracker 3.40 0067  02.08.2006

@<TRIPOS>MOLECULE
ASD01410705
  83   88    0    0    0
SMALL
NO_CHARGES


@<TRIPOS>ATOM
   1 C1            -0.0178     1.4608     0.0101 C.3     
   2 N2             0.0021    -0.0041     0.0020 N.am    
   3 C3             0.0241    -0.7404     1.2648 C.3     
   4 C4             0.9082    -0.0060     2.2748 C.3     
   5 O5             1.8601    -0.9185     2.8265 O.3     
   6 C6             2.9196    -0.2871     3.5481 C.3     
   7 C7             3.7218    -1.3431     4.3100 C.3     
   8 N8             5.0592    -1.4673     3.6799 N.am    
   9 C9             6.2652    -0.8698     4.2584 C.3     
  10 S10           -0.0073    -0.8244    -1.4402 S.o2    
  11 O11           -0.0618     0.1572    -2.4662 O.2     
  12 N12            1.4853    -1.5508    -1.5545 N.am    
  13 O13           -0.9605    -1.8699    -1.3073 O.2     
  14 C14            1.6725    -2.4714    -2.5588 C.2     
  15 O15            0.8272    -2.7307    -3.3936 O.2     
  16 C16            3.0081    -3.1166    -2.5233 C.ar    
  17 C17            3.3806    -4.0897    -3.4448 C.ar    
  18 C18            4.6032    -4.7168    -3.3717 C.ar    
  19 C19            5.4592    -4.3341    -2.3242 C.ar    
  20 C20            5.1064    -3.2898    -1.4301 C.ar    
  21 C21            3.8712    -2.6736    -1.5086 C.ar    
  22 C22            6.7091    -4.8078    -1.8939 C.2     
  23 C23            7.1028    -4.0858    -0.8245 C.2     
  24 N24            6.1644    -3.0869    -0.5871 N.pl3   
  25 C25            7.4837    -5.9368    -2.5235 C.3     
  26 C26            6.6521    -7.2198    -2.4666 C.3     
  27 C27            7.7915    -5.5928    -3.9823 C.3     
  28 C28            8.5778    -6.7390    -4.6215 C.3     
  29 C29            7.7463    -8.0220    -4.5646 C.3     
  30 C30            7.4385    -8.3660    -3.1059 C.3     
  31 C31            8.3069    -4.2317     0.0127 C.ar    
  32 C32            8.1954    -4.1039     1.3965 C.ar    
  33 C33            6.8344    -3.8523     1.9905 C.3     
  34 C34            6.4113    -2.4061     1.8067 C.3     
  35 C35            6.3096    -1.9876     0.3590 C.3     
  36 C36            5.0757    -2.1867     2.5128 C.2     
  37 O37            4.0519    -2.6329     2.0399 O.2     
  38 C38            9.5536    -4.4899    -0.5563 C.ar    
  39 C39           10.6669    -4.6013     0.2484 C.ar    
  40 C40           10.5516    -4.4603     1.6243 C.ar    
  41 C41            9.3099    -4.2126     2.1965 C.ar    
  42 O42           11.6535    -4.5640     2.4120 O.3     
  43 C43           12.8976    -4.8190     1.7569 C.3     
  44 H44            1.0048     1.8381     0.0023 H       
  45 H45           -0.5450     1.8219    -0.8730 H       
  46 H46           -0.5280     1.8123     0.9069 H       
  47 H47           -0.9897    -0.8163     1.6580 H       
  48 H48            0.4221    -1.7407     1.0944 H       
  49 H49            1.4328     0.8079     1.7742 H       
  50 H50            0.2875     0.3990     3.0741 H       
  51 H51            3.5753     0.2326     2.8495 H       
  52 H52            2.5009     0.4299     4.2543 H       
  53 H53            3.8344    -1.0371     5.3501 H       
  54 H54            3.2041    -2.3011     4.2617 H       
  55 H55            6.0065    -0.3503     5.1810 H       
  56 H56            6.9914    -1.6535     4.4740 H       
  57 H57            6.6949    -0.1610     3.5505 H       
  58 H58            2.1984    -1.3328    -0.9341 H       
  59 H59            2.6952    -4.3592    -4.2347 H       
  60 H60            4.8928    -5.4712    -4.0882 H       
  61 H61            3.5844    -1.8900    -0.8229 H       
  62 H62            8.4171    -6.0843    -1.9803 H       
  63 H63            6.4328    -7.4648    -1.4274 H       
  64 H64            5.7187    -7.0722    -3.0098 H       
  65 H65            6.8581    -5.4452    -4.5255 H       
  66 H66            8.3839    -4.6787    -4.0228 H       
  67 H67            8.7971    -6.4940    -5.6608 H       
  68 H68            9.5112    -6.8866    -4.0783 H       
  69 H69            6.8129    -7.8745    -5.1078 H       
  70 H70            8.3065    -8.8386    -5.0200 H       
  71 H71            8.3719    -8.5136    -2.5627 H       
  72 H72            6.8461    -9.2800    -3.0653 H       
  73 H73            6.1070    -4.5013     1.5028 H       
  74 H74            6.8619    -4.0831     3.0554 H       
  75 H75            7.1542    -1.7739     2.2981 H       
  76 H76            7.2073    -1.4266     0.0993 H       
  77 H77            5.4500    -1.3260     0.2520 H       
  78 H78            9.6465    -4.6029    -1.6264 H       
  79 H79           11.6324    -4.7994    -0.1932 H       
  80 H80            9.2194    -4.1063     3.2675 H       
  81 H81           13.6936    -4.8784     2.4992 H       
  82 H82           12.8358    -5.7622     1.2141 H       
  83 H83           13.1124    -4.0108     1.0577 H       
@<TRIPOS>BOND
   1    1    2 1
   2    1   44 1
   3    1   45 1
   4    1   46 1
   5    2    3 1
   6    2   10 am
   7    3    4 1
   8    3   47 1
   9    3   48 1
  10    4    5 1
  11    4   49 1
  12    4   50 1
  13    5    6 1
  14    6    7 1
  15    6   51 1
  16    6   52 1
  17    7    8 1
  18    7   53 1
  19    7   54 1
  20    8    9 1
  21    8   36 am
  22    9   55 1
  23    9   56 1
  24    9   57 1
  25   10   11 2
  26   10   12 am
  27   10   13 2
  28   12   14 am
  29   12   58 1
  30   14   15 2
  31   14   16 1
  32   16   17 ar
  33   16   21 ar
  34   17   18 ar
  35   17   59 1
  36   18   19 ar
  37   18   60 1
  38   19   20 ar
  39   19   22 1
  40   20   21 ar
  41   20   24 1
  42   21   61 1
  43   22   23 2
  44   22   25 1
  45   23   24 1
  46   23   31 1
  47   24   35 1
  48   25   26 1
  49   25   27 1
  50   25   62 1
  51   26   30 1
  52   26   63 1
  53   26   64 1
  54   27   28 1
  55   27   65 1
  56   27   66 1
  57   28   29 1
  58   28   67 1
  59   28   68 1
  60   29   30 1
  61   29   69 1
  62   29   70 1
  63   30   71 1
  64   30   72 1
  65   31   32 ar
  66   31   38 ar
  67   32   33 1
  68   32   41 ar
  69   33   34 1
  70   33   73 1
  71   33   74 1
  72   34   35 1
  73   34   36 1
  74   34   75 1
  75   35   76 1
  76   35   77 1
  77   36   37 2
  78   38   39 ar
  79   38   78 1
  80   39   40 ar
  81   39   79 1
  82   40   41 ar
  83   40   42 1
  84   41   80 1
  85   42   43 1
  86   43   81 1
  87   43   82 1
  88   43   83 1

#	End of record

