#	Name: ASD01882101
#	Creating user name:	WinNT
#	Creation time:	15. 06. 2019 19:43

#	Modifying user name:	WinNT
#	Modification time:	15. 06. 2019 19:43

#	Program:	/corina/corina34_cracker 3.40 0067  02.08.2006

@<TRIPOS>MOLECULE
ASD01882101
  50   54    0    0    0
SMALL
NO_CHARGES


@<TRIPOS>ATOM
   1 C1            -0.0161     1.3337     0.0094 C.2     
   2 N2             0.0021    -0.0041     0.0020 N.am    
   3 C3             1.2613    -0.4841    -0.0126 C.2     
   4 C4             2.1640     0.7337    -0.0147 C.3     
   5 N5             1.2200     1.8645     0.0004 N.am    
   6 O6            -1.0354     1.9955     0.0180 O.2     
   7 O7             1.6013    -1.6477    -0.0215 O.2     
   8 C8            -1.1986    -0.8435     0.0097 C.3     
   9 C9             1.5609     3.2893     0.0041 C.3     
  10 C10            1.6916     3.7708     1.4261 C.ar    
  11 C11            2.9179     3.7120     2.0635 C.ar    
  12 C12            3.0436     4.1515     3.3656 C.ar    
  13 C13            1.9317     4.6556     4.0385 C.ar    
  14 C14            0.6985     4.7125     3.3911 C.ar    
  15 C15            0.5860     4.2753     2.0870 C.ar    
  16 C16            2.1261     6.5455     9.4233 C.2     
  17 N17            0.8494     6.9172     9.6193 N.am    
  18 C18            0.0878     6.6562     8.3927 C.3     
  19 C19            1.0667     6.0706     7.4054 C.ar    
  20 C20            0.9450     5.6335     6.1100 C.ar    
  21 C21            2.0602     5.1290     5.4379 C.ar    
  22 C22            3.2948     5.0702     6.0838 C.ar    
  23 C23            3.4178     5.5084     7.3846 C.ar    
  24 C24            2.3015     6.0144     8.0598 C.ar    
  25 O25            3.0114     6.6391    10.2513 O.2     
  26 O26            1.7486     7.1308    12.2980 O.3     
  27 C27            0.4401     6.5848    12.0868 C.3     
  28 C28            0.3074     7.4883    10.8547 C.3     
  29 C29            1.3041     8.3337    11.6573 C.3     
  30 Cl30           4.9564     5.4329     8.1849 Cl      
  31 H31            2.7924     0.7467     0.8759 H       
  32 H32            2.7753     0.7564    -0.9169 H       
  33 H33           -1.5068    -1.0461    -1.0159 H       
  34 H34           -0.9813    -1.7838     0.5163 H       
  35 H35           -2.0010    -0.3250     0.5345 H       
  36 H36            2.5060     3.4381    -0.5182 H       
  37 H37            0.7749     3.8522    -0.4994 H       
  38 H38            3.7786     3.3209     1.5412 H       
  39 H39            4.0014     4.1047     3.8624 H       
  40 H40           -0.1664     5.1017     3.9078 H       
  41 H41           -0.3679     4.3233     1.5828 H       
  42 H42           -0.7131     5.9446     8.5932 H       
  43 H43           -0.3257     7.5866     8.0033 H       
  44 H44           -0.0119     5.6793     5.6114 H       
  45 H45            4.1568     4.6799     5.5633 H       
  46 H46            0.4484     5.5219    11.8452 H       
  47 H47           -0.2646     6.8302    12.8814 H       
  48 H48           -0.6755     7.9426    10.7296 H       
  49 H49            0.8250     9.0357    12.3397 H       
  50 H50            2.0694     8.8031    11.0394 H       
@<TRIPOS>BOND
   1    1    2 am
   2    1    5 am
   3    1    6 2
   4    2    3 am
   5    2    8 1
   6    3    4 1
   7    3    7 2
   8    4    5 1
   9    4   31 1
  10    4   32 1
  11    5    9 1
  12    8   33 1
  13    8   34 1
  14    8   35 1
  15    9   10 1
  16    9   36 1
  17    9   37 1
  18   10   11 ar
  19   10   15 ar
  20   11   12 ar
  21   11   38 1
  22   12   13 ar
  23   12   39 1
  24   13   14 ar
  25   13   21 1
  26   14   15 ar
  27   14   40 1
  28   15   41 1
  29   16   17 am
  30   16   24 1
  31   16   25 2
  32   17   18 1
  33   17   28 1
  34   18   19 1
  35   18   42 1
  36   18   43 1
  37   19   20 ar
  38   19   24 ar
  39   20   21 ar
  40   20   44 1
  41   21   22 ar
  42   22   23 ar
  43   22   45 1
  44   23   24 ar
  45   23   30 1
  46   26   27 1
  47   26   29 1
  48   27   28 1
  49   27   46 1
  50   27   47 1
  51   28   29 1
  52   28   48 1
  53   29   49 1
  54   29   50 1

#	End of record

