#	Name: ASD04220041
#	Creating user name:	WinNT
#	Creation time:	15. 06. 2019 20:48

#	Modifying user name:	WinNT
#	Modification time:	15. 06. 2019 20:48

#	Program:	/corina/corina34_cracker 3.40 0067  02.08.2006

@<TRIPOS>MOLECULE
ASD04220041
 108  111    0    0    0
SMALL
NO_CHARGES


@<TRIPOS>ATOM
   1 C1            -6.4104     0.9766    -5.0932 C.3     
   2 C2            -7.3201     0.2676    -6.1000 C.3     
   3 C3            -6.6294     0.2364    -7.4668 C.3     
   4 C4            -5.2701    -0.4553    -7.3240 C.3     
   5 C5            -4.4396     0.2816    -6.2699 C.3     
   6 O6            -5.1527     0.3010    -5.0317 O.3     
   7 O7            -7.5690    -1.0690    -5.6601 O.3     
   8 S8            -8.8592    -1.2302    -4.8689 S.o2    
   9 O9            -8.8471    -2.5516    -4.3464 O.2     
  10 O10           -8.9768    -0.0729    -4.0529 O.2     
  11 O11          -10.0086    -1.1725    -5.8650 O.3     
  12 O12           -6.2052     2.3290    -5.5064 O.3     
  13 C13           -5.4594     3.1147    -4.5744 C.3     
  14 C14           -3.9460     5.0804    -4.3123 C.3     
  15 C15           -4.6790     4.1971    -5.3265 C.3     
  16 C16           -6.4184     3.7822    -3.5853 C.3     
  17 O17           -5.6756     4.6129    -2.6906 O.3     
  18 C18           -4.9634     5.6720    -3.3332 C.3     
  19 O19           -3.7293     3.5823    -6.1995 O.3     
  20 N20           -2.9698     4.2736    -3.5758 N.am    
  21 S21           -1.4685     4.8890    -3.2445 S.o2    
  22 S22           -4.2219     3.4128    -7.6295 S.o2    
  23 O23           -3.2513     2.6179    -8.2968 O.2     
  24 O24           -5.5938     3.0530    -7.5413 O.2     
  25 O25           -4.1789     4.7851    -8.2865 O.3     
  26 O26           -0.7980     3.9113    -2.4612 O.2     
  27 O27           -0.9572     5.3838    -4.4745 O.2     
  28 O28           -1.6667     6.0996    -2.3434 O.3     
  29 O29           -4.2806     6.4524    -2.3500 O.3     
  30 C30           -5.1442     7.2545    -1.5421 C.3     
  31 C31           -4.4964     7.4860    -0.1744 C.3     
  32 C32           -5.3743     8.6063    -2.2247 C.3     
  33 C33           -6.2370     9.4855    -1.3141 C.3     
  34 C34           -5.5470     9.6308     0.0447 C.3     
  35 O35           -5.3351     8.3359     0.6107 O.3     
  36 C36           -4.3208     6.1647     0.5286 C.2     
  37 O37           -4.9482     5.9270     1.5335 O.2     
  38 O38           -3.4675     5.2518     0.0384 O.3     
  39 O39           -6.3979    10.7751    -1.9083 O.3     
  40 S40           -7.7664    11.3985    -1.6735 S.o2    
  41 O41           -7.8026    12.5900    -2.4469 O.2     
  42 O42           -8.7149    10.3500    -1.8166 O.2     
  43 O43           -7.8204    11.8308    -0.2152 O.3     
  44 O44           -4.2894    10.2873    -0.1272 O.3     
  45 C45           -3.7133    10.7674     1.0892 C.3     
  46 C46           -1.5594     9.6105     0.5933 C.3     
  47 C47           -2.6960     9.7479     1.6110 C.3     
  48 C48           -3.0027    12.0981     0.8285 C.3     
  49 O49           -1.9379    11.8937    -0.1024 O.3     
  50 C50           -0.9321    10.9859     0.3518 C.3     
  51 N51           -0.5430     8.6936     1.1154 N.am    
  52 C52            0.2971     8.0661     0.2687 C.2     
  53 C53            1.2687     7.0406     0.7935 C.3     
  54 O54            0.2710     8.3265    -0.9155 O.2     
  55 O55           -0.3664    11.4723     1.5705 O.3     
  56 O56           -2.1672    10.1968     2.8604 O.3     
  57 O57           -4.1172     9.2456    -2.4551 O.3     
  58 O58           -7.4390    -0.4879    -8.3952 O.3     
  59 O59           -5.4647    -1.8110    -6.9164 O.3     
  60 C60           -3.1236    -0.4279    -6.0809 C.2     
  61 O61           -2.8649    -0.9493    -5.0221 O.2     
  62 O62           -2.2387    -0.4807    -7.0889 O.3     
  63 C63           -3.9998    13.1043     0.2503 C.3     
  64 O64           -3.3665    14.3780     0.1141 O.3     
  65 S65           -4.3030    15.4900    -0.3364 S.o2    
  66 O66           -3.4871    16.6276    -0.5801 O.2     
  67 O67           -5.1573    14.9214    -1.3193 O.2     
  68 O68           -5.1881    15.8421     0.8506 O.3     
  69 H69           -6.8783     0.9640    -4.1088 H       
  70 H70           -8.2638     0.8071    -6.1810 H       
  71 H71           -6.4840     1.2555    -7.8253 H       
  72 H72           -4.7477    -0.4328    -8.2803 H       
  73 H73           -4.2573     1.3041    -6.6005 H       
  74 H74          -10.8829    -1.2659    -5.4625 H       
  75 H75           -4.7644     2.4738    -4.0319 H       
  76 H76           -3.4325     5.8870    -4.8357 H       
  77 H77           -5.3700     4.8068    -5.9087 H       
  78 H78           -7.1393     4.3902    -4.1319 H       
  79 H79           -6.9457     3.0161    -3.0168 H       
  80 H80           -5.6653     6.3048    -3.8765 H       
  81 H81           -3.2028     3.3790    -3.2823 H       
  82 H82           -4.4749     4.7898    -9.2071 H       
  83 H83           -0.8520     6.5831    -2.1495 H       
  84 H84           -6.0989     6.7448    -1.4123 H       
  85 H85           -3.5234     7.9588    -0.3084 H       
  86 H86           -5.8862     8.4527    -3.1747 H       
  87 H87           -7.2139     9.0213    -1.1788 H       
  88 H88           -6.1768    10.2201     0.7111 H       
  89 H89           -3.3324     4.4508     0.5631 H       
  90 H90           -8.6251    12.3110     0.0231 H       
  91 H91           -4.4981    10.9128     1.8314 H       
  92 H92           -1.9554     9.2210    -0.3446 H       
  93 H93           -3.1836     8.7824     1.7457 H       
  94 H94           -2.5983    12.4837     1.7644 H       
  95 H95           -0.1508    10.9015    -0.4036 H       
  96 H96           -0.4747     8.5383     2.0704 H       
  97 H97            0.8034     6.0552     0.7730 H       
  98 H98            2.1621     7.0336     0.1690 H       
  99 H99            1.5436     7.2914     1.8180 H       
 100 H100           0.0496    12.3417     1.4916 H       
 101 H101          -1.5102     9.6013     3.2461 H       
 102 H102          -4.1879    10.1086    -2.8857 H       
 103 H103          -7.0615    -0.5474    -9.2834 H       
 104 H104          -4.6439    -2.3103    -6.8062 H       
 105 H105          -1.4084    -0.9468    -6.9202 H       
 106 H106          -4.3377    12.7601    -0.7272 H       
 107 H107          -4.8554    13.1936     0.9197 H       
 108 H108          -5.8267    16.5455     0.6700 H       
@<TRIPOS>BOND
   1    1    2 1
   2    1    6 1
   3    1   12 1
   4    1   69 1
   5    2    3 1
   6    2    7 1
   7    2   70 1
   8    3    4 1
   9    3   58 1
  10    3   71 1
  11    4    5 1
  12    4   59 1
  13    4   72 1
  14    5    6 1
  15    5   60 1
  16    5   73 1
  17    7    8 1
  18    8    9 2
  19    8   10 2
  20    8   11 1
  21   11   74 1
  22   12   13 1
  23   13   16 1
  24   13   15 1
  25   13   75 1
  26   14   15 1
  27   14   18 1
  28   14   20 1
  29   14   76 1
  30   15   19 1
  31   15   77 1
  32   16   17 1
  33   16   78 1
  34   16   79 1
  35   17   18 1
  36   18   29 1
  37   18   80 1
  38   19   22 1
  39   20   21 am
  40   20   81 1
  41   21   26 2
  42   21   27 2
  43   21   28 1
  44   22   23 2
  45   22   24 2
  46   22   25 1
  47   25   82 1
  48   28   83 1
  49   29   30 1
  50   30   32 1
  51   30   31 1
  52   30   84 1
  53   31   35 1
  54   31   36 1
  55   31   85 1
  56   32   33 1
  57   32   57 1
  58   32   86 1
  59   33   34 1
  60   33   39 1
  61   33   87 1
  62   34   35 1
  63   34   44 1
  64   34   88 1
  65   36   37 2
  66   36   38 1
  67   38   89 1
  68   39   40 1
  69   40   41 2
  70   40   42 2
  71   40   43 1
  72   43   90 1
  73   44   45 1
  74   45   48 1
  75   45   47 1
  76   45   91 1
  77   46   47 1
  78   46   50 1
  79   46   51 1
  80   46   92 1
  81   47   56 1
  82   47   93 1
  83   48   49 1
  84   48   63 1
  85   48   94 1
  86   49   50 1
  87   50   55 1
  88   50   95 1
  89   51   52 am
  90   51   96 1
  91   52   53 1
  92   52   54 2
  93   53   97 1
  94   53   98 1
  95   53   99 1
  96   55  100 1
  97   56  101 1
  98   57  102 1
  99   58  103 1
 100   59  104 1
 101   60   61 2
 102   60   62 1
 103   62  105 1
 104   63   64 1
 105   63  106 1
 106   63  107 1
 107   64   65 1
 108   65   66 2
 109   65   67 2
 110   65   68 1
 111   68  108 1

#	End of record

