#	Name: ASD03320185
#	Creating user name:	WinNT
#	Creation time:	15. 06. 2019 20:36

#	Modifying user name:	WinNT
#	Modification time:	15. 06. 2019 20:36

#	Program:	/corina/corina34_cracker 3.40 0067  02.08.2006

@<TRIPOS>MOLECULE
ASD03320185
  39   41    0    0    0
SMALL
NO_CHARGES


@<TRIPOS>ATOM
   1 C1            -0.0078     1.3449    -0.1947 C.ar    
   2 C2             0.0216    -0.0349     0.0279 C.ar    
   3 C3            -1.1507    -0.7585     0.0441 C.ar    
   4 C4            -2.3672    -0.1224    -0.1604 C.ar    
   5 C5            -2.4072     1.2597    -0.3842 C.ar    
   6 C6            -1.2278     1.9923    -0.3948 C.ar    
   7 C7             1.2499     2.1173    -0.2120 C.2     
   8 O8             1.2237     3.3175    -0.4056 O.2     
   9 N9             2.4273     1.4923    -0.0131 N.am    
  10 C10            3.6268     2.2061    -0.1264 C.ar    
  11 C11           -3.7072     1.9402    -0.6033 C.ar    
  12 C12            3.6887     3.5305     0.2864 C.ar    
  13 C13            4.8720     4.2335     0.1748 C.ar    
  14 C14            5.9985     3.6172    -0.3500 C.ar    
  15 C15            5.9373     2.2943    -0.7631 C.ar    
  16 C16            4.7564     1.5881    -0.6464 C.ar    
  17 O17            7.1632     4.3102    -0.4600 O.3     
  18 C18            8.2834     3.6134    -1.0092 C.3     
  19 F19            7.9767     3.1855    -2.3054 F       
  20 F20            9.3901     4.4682    -1.0499 F       
  21 F21            8.5801     2.5041    -0.2100 F       
  22 C22           -4.6251     1.4514    -1.5365 C.ar    
  23 N23           -5.7720     2.0881    -1.6999 N.ar    
  24 C24           -6.0540     3.1678    -0.9980 C.ar    
  25 N25           -5.2165     3.6619    -0.1079 N.ar    
  26 C26           -4.0500     3.0841     0.1221 C.ar    
  27 O27           -3.5184    -0.8399    -0.1438 O.3     
  28 H28            0.9656    -0.5348     0.1872 H       
  29 H29           -1.1229    -1.8244     0.2161 H       
  30 H30           -1.2536     3.0582    -0.5669 H       
  31 H31            2.4439     0.5481     0.2085 H       
  32 H32            2.8116     4.0107     0.6944 H       
  33 H33            4.9203     5.2636     0.4958 H       
  34 H34            6.8146     1.8153    -1.1722 H       
  35 H35            4.7090     0.5581    -0.9676 H       
  36 H36           -4.4009     0.5677    -2.1154 H       
  37 H37           -7.0003     3.6632    -1.1575 H       
  38 H38           -3.3691     3.4947     0.8529 H       
  39 H39           -3.9260    -0.9095     0.7303 H       
@<TRIPOS>BOND
   1    1    2 ar
   2    1    7 1
   3    1    6 ar
   4    2    3 ar
   5    2   28 1
   6    3    4 ar
   7    3   29 1
   8    4    5 ar
   9    4   27 1
  10    5    6 ar
  11    5   11 1
  12    6   30 1
  13    7    8 2
  14    7    9 am
  15    9   10 1
  16    9   31 1
  17   10   12 ar
  18   10   16 ar
  19   11   22 ar
  20   11   26 ar
  21   12   13 ar
  22   12   32 1
  23   13   14 ar
  24   13   33 1
  25   14   15 ar
  26   14   17 1
  27   15   16 ar
  28   15   34 1
  29   16   35 1
  30   17   18 1
  31   18   19 1
  32   18   20 1
  33   18   21 1
  34   22   23 ar
  35   22   36 1
  36   23   24 ar
  37   24   25 ar
  38   24   37 1
  39   25   26 ar
  40   26   38 1
  41   27   39 1

#	End of record

