#	Name: ASD03240635
#	Creating user name:	WinNT
#	Creation time:	15. 06. 2019 20:35

#	Modifying user name:	WinNT
#	Modification time:	15. 06. 2019 20:35

#	Program:	/corina/corina34_cracker 3.40 0067  02.08.2006

@<TRIPOS>MOLECULE
ASD03240635
  74   81    0    0    0
SMALL
NO_CHARGES


@<TRIPOS>ATOM
   1 C1             0.7244     0.2347    -1.5668 C.ar    
   2 C2             0.9310    -1.0562    -1.1260 C.ar    
   3 N3             2.0107    -1.3746    -0.4375 N.ar    
   4 C4             2.9407    -0.4778    -0.1381 C.ar    
   5 C5             2.8038     0.8420    -0.5640 C.ar    
   6 C6             1.6744     1.2076    -1.2848 C.ar    
   7 N7             4.0395    -0.8688     0.6220 N.pl3   
   8 C8             4.2655    -0.3165     1.8798 C.ar    
   9 C9             4.5051     1.0545     2.0219 C.ar    
  10 C10            4.5502     1.9290     0.8294 C.2     
  11 N11            3.7885     1.8034    -0.2959 N.pl3   
  12 C12            4.2510    -1.1297     3.0052 C.ar    
  13 C13            4.4617    -0.5829     4.2566 C.ar    
  14 C14            4.6873     0.7753     4.3996 C.ar    
  15 C15            4.7101     1.5966     3.2904 C.ar    
  16 N16            5.3492     2.9679     0.6907 N.2     
  17 C17            5.1449     3.5401    -0.5057 C.2     
  18 C18            4.1585     2.8191    -1.1554 C.2     
  19 C19            3.6109     3.0830    -2.4999 C.ar    
  20 C20            3.2772     4.3858    -2.8786 C.ar    
  21 C21            3.4290     2.0320    -3.4023 C.ar    
  22 C22            2.9167     2.2860    -4.6574 C.ar    
  23 C23            2.5830     3.5782    -5.0236 C.ar    
  24 C24            2.7658     4.6249    -4.1370 C.ar    
  25 C25            5.8492     4.7304    -1.0360 C.ar    
  26 C26            2.0242     3.8477    -6.3970 C.3     
  27 C27            6.2282     5.7599    -0.1741 C.ar    
  28 N28            1.4921     2.6406    -7.0433 N.3     
  29 C29            1.0634     5.0474    -6.4466 C.3     
  30 C30            1.7177     5.4155    -7.7887 C.3     
  31 C31            2.9665     4.6655    -7.2959 C.3     
  32 C32            6.8835     6.8664    -0.6705 C.ar    
  33 C33            7.1666     6.9571    -2.0281 C.ar    
  34 C34            6.7898     5.9333    -2.8892 C.ar    
  35 C35            6.1398     4.8216    -2.3975 C.ar    
  36 N36            7.8316     8.0812    -2.5289 N.am    
  37 C37            7.0243     9.2061    -2.9840 C.3     
  38 C38            7.8678    10.4802    -3.0452 C.3     
  39 C39            9.1468    10.1847    -3.8378 C.3     
  40 C40           10.0046     9.2106    -3.0265 C.3     
  41 C41            9.1647     8.0585    -2.5552 C.2     
  42 O42            9.7288     7.0500    -2.1865 O.2     
  43 H43           -0.1636     0.4846    -2.1285 H       
  44 H44            0.1978    -1.8176    -1.3474 H       
  45 H45            1.5382     2.2255    -1.6189 H       
  46 H46            4.6538    -1.5328     0.2718 H       
  47 H47            4.0747    -2.1902     2.9023 H       
  48 H48            4.4498    -1.2195     5.1290 H       
  49 H49            4.8458     1.1939     5.3825 H       
  50 H50            4.8866     2.6559     3.4045 H       
  51 H51            3.4190     5.2035    -2.1876 H       
  52 H52            3.6894     1.0231    -3.1180 H       
  53 H53            2.7759     1.4747    -5.3561 H       
  54 H54            2.5032     5.6308    -4.4296 H       
  55 H55            6.0081     5.6901     0.8809 H       
  56 H56            2.1624     1.8872    -7.0099 H       
  57 H57            0.6158     2.3637    -6.6265 H       
  58 H58            0.0148     4.7636    -6.5353 H       
  59 H59            1.2394     5.7806    -5.6594 H       
  60 H60            1.2397     4.9489    -8.6500 H       
  61 H61            1.8745     6.4863    -7.9189 H       
  62 H62            3.6628     5.2942    -6.7409 H       
  63 H63            3.4542     4.0734    -8.0703 H       
  64 H64            7.1768     7.6639    -0.0038 H       
  65 H65            7.0105     6.0068    -3.9439 H       
  66 H66            5.8473     4.0263    -3.0671 H       
  67 H67            6.6288     8.9879    -3.9760 H       
  68 H68            6.1942     9.3564    -2.2936 H       
  69 H69            7.3033    11.2689    -3.5425 H       
  70 H70            8.1283    10.7952    -2.0347 H       
  71 H71            8.8886     9.7353    -4.7967 H       
  72 H72            9.6986    11.1102    -4.0024 H       
  73 H73           10.8175     8.8382    -3.6499 H       
  74 H74           10.4207     9.7281    -2.1621 H       
@<TRIPOS>BOND
   1    1    2 ar
   2    1    6 ar
   3    1   43 1
   4    2    3 ar
   5    2   44 1
   6    3    4 ar
   7    4    5 ar
   8    4    7 1
   9    5    6 ar
  10    5   11 1
  11    6   45 1
  12    7    8 1
  13    7   46 1
  14    8    9 ar
  15    8   12 ar
  16    9   10 1
  17    9   15 ar
  18   10   11 1
  19   10   16 2
  20   11   18 1
  21   12   13 ar
  22   12   47 1
  23   13   14 ar
  24   13   48 1
  25   14   15 ar
  26   14   49 1
  27   15   50 1
  28   16   17 1
  29   17   18 2
  30   17   25 1
  31   18   19 1
  32   19   20 ar
  33   19   21 ar
  34   20   24 ar
  35   20   51 1
  36   21   22 ar
  37   21   52 1
  38   22   23 ar
  39   22   53 1
  40   23   24 ar
  41   23   26 1
  42   24   54 1
  43   25   27 ar
  44   25   35 ar
  45   26   29 1
  46   26   28 1
  47   26   31 1
  48   27   32 ar
  49   27   55 1
  50   28   56 1
  51   28   57 1
  52   29   30 1
  53   29   58 1
  54   29   59 1
  55   30   31 1
  56   30   60 1
  57   30   61 1
  58   31   62 1
  59   31   63 1
  60   32   33 ar
  61   32   64 1
  62   33   34 ar
  63   33   36 1
  64   34   35 ar
  65   34   65 1
  66   35   66 1
  67   36   37 1
  68   36   41 am
  69   37   38 1
  70   37   67 1
  71   37   68 1
  72   38   39 1
  73   38   69 1
  74   38   70 1
  75   39   40 1
  76   39   71 1
  77   39   72 1
  78   40   41 1
  79   40   73 1
  80   40   74 1
  81   41   42 2

#	End of record

