#	Name: ASD01913420
#	Creating user name:	WinNT
#	Creation time:	15. 06. 2019 20:01

#	Modifying user name:	WinNT
#	Modification time:	15. 06. 2019 20:01

#	Program:	/corina/corina34_cracker 3.40 0067  02.08.2006

@<TRIPOS>MOLECULE
ASD01913420
  40   42    0    0    0
SMALL
NO_CHARGES


@<TRIPOS>ATOM
   1 C1            -0.1082    -0.7205    -2.1596 C.ar    
   2 C2            -0.5524    -0.0423    -1.0291 C.ar    
   3 C3            -0.5254     1.3485    -1.0416 C.ar    
   4 N4            -0.0816     1.9723    -2.1204 N.ar    
   5 C5             0.3309     1.2939    -3.1723 C.ar    
   6 N6             0.3209    -0.0237    -3.1990 N.ar    
   7 C7            -1.0072    -2.0789     0.0069 C.ar    
   8 C8             0.1734    -2.7850     0.1914 C.ar    
   9 C9             0.1724    -4.1691     0.1441 C.ar    
  10 C10           -1.0049    -4.8551    -0.0867 C.ar    
  11 C11           -2.1962    -4.1517    -0.2727 C.ar    
  12 C12           -2.1925    -2.7575    -0.2251 C.ar    
  13 C13           -3.4576    -4.8817    -0.5204 C.2     
  14 N14           -3.4586    -6.2287    -0.5668 N.am    
  15 C15           -4.6612    -6.9204    -0.6942 C.ar    
  16 O16           -4.4938    -4.2672    -0.6821 O.2     
  17 O17           -1.0015    -0.7211     0.0594 O.3     
  18 F18            1.3252    -4.8503     0.3236 F       
  19 C19           -4.6679    -8.3088    -0.6245 C.ar    
  20 C20           -5.8695    -8.9834    -0.7521 C.ar    
  21 C21           -7.0274    -8.2428    -0.9458 C.ar    
  22 C22           -6.9470    -6.8653    -1.0049 C.ar    
  23 N23           -5.7880    -6.2492    -0.8750 N.ar    
  24 C24           -5.9197   -10.4880    -0.6829 C.3     
  25 C25           -6.1288   -10.9250     0.7684 C.3     
  26 H26           -0.1096    -1.8002    -2.1867 H       
  27 H27           -0.8623     1.9108    -0.1833 H       
  28 H28            0.6871     1.8333    -4.0375 H       
  29 H29            1.0959    -2.2533     0.3720 H       
  30 H30           -1.0032    -5.9345    -0.1235 H       
  31 H31           -3.1115    -2.2085    -0.3680 H       
  32 H32           -2.6220    -6.7165    -0.5116 H       
  33 H33           -3.7478    -8.8537    -0.4732 H       
  34 H34           -7.9812    -8.7387    -1.0494 H       
  35 H35           -7.8453    -6.2849    -1.1555 H       
  36 H36           -6.7449   -10.8525    -1.2946 H       
  37 H37           -4.9818   -10.9003    -1.0550 H       
  38 H38           -6.1651   -12.0133     0.8184 H       
  39 H39           -5.3036   -10.5605     1.3801 H       
  40 H40           -7.0667   -10.5127     1.1405 H       
@<TRIPOS>BOND
   1    1    2 ar
   2    1    6 ar
   3    1   26 1
   4    2    3 ar
   5    2   17 1
   6    3    4 ar
   7    3   27 1
   8    4    5 ar
   9    5    6 ar
  10    5   28 1
  11    7    8 ar
  12    7   12 ar
  13    7   17 1
  14    8    9 ar
  15    8   29 1
  16    9   10 ar
  17    9   18 1
  18   10   11 ar
  19   10   30 1
  20   11   12 ar
  21   11   13 1
  22   12   31 1
  23   13   14 am
  24   13   16 2
  25   14   15 1
  26   14   32 1
  27   15   19 ar
  28   15   23 ar
  29   19   20 ar
  30   19   33 1
  31   20   21 ar
  32   20   24 1
  33   21   22 ar
  34   21   34 1
  35   22   23 ar
  36   22   35 1
  37   24   25 1
  38   24   36 1
  39   24   37 1
  40   25   38 1
  41   25   39 1
  42   25   40 1

#	End of record

