#	Name: ASD01230319
#	Creating user name:	WinNT
#	Creation time:	15. 06. 2019 19:14

#	Modifying user name:	WinNT
#	Modification time:	15. 06. 2019 19:14

#	Program:	/corina/corina34_cracker 3.40 0067  02.08.2006

@<TRIPOS>MOLECULE
ASD01230319
  23   24    0    0    0
SMALL
NO_CHARGES


@<TRIPOS>ATOM
   1 C1            -0.0166     1.3749     0.0096 C.ar    
   2 C2             0.0021    -0.0041     0.0020 C.ar    
   3 C3             1.2067    -0.6853    -0.0126 C.ar    
   4 C4             2.3971     0.0210    -0.0126 C.ar    
   5 C5             2.3810     1.4001     0.0018 C.ar    
   6 C6             1.1782     2.0930     0.0020 C.ar    
   7 N7             1.1251     3.4847    -0.0271 N.pl3   
   8 S8             3.9032     2.2978     0.0388 S.o2    
   9 N9             3.4690     3.8836    -0.2434 N.am    
  10 C10            2.2260     4.3387     0.4123 C.3     
  11 Cl11           1.2248    -2.4211    -0.0303 Cl      
  12 O12            4.3837     2.2356     1.3747 O.2     
  13 O13            4.6577     1.8724    -1.0877 O.2     
  14 C14            4.2720     4.7706    -1.0888 C.3     
  15 H15           -0.9602     1.9002     0.0169 H       
  16 H16           -0.9271    -0.5546     0.0079 H       
  17 H17            3.3387    -0.5079    -0.0236 H       
  18 H18            0.3167     3.9081    -0.3559 H       
  19 H19            2.0218     5.3719     0.1314 H       
  20 H20            2.3354     4.2664     1.4943 H       
  21 H21            3.9303     4.6961    -2.1212 H       
  22 H22            4.1629     5.7986    -0.7433 H       
  23 H23            5.3201     4.4771    -1.0308 H       
@<TRIPOS>BOND
   1    1    2 ar
   2    1    6 ar
   3    1   15 1
   4    2    3 ar
   5    2   16 1
   6    3    4 ar
   7    3   11 1
   8    4    5 ar
   9    4   17 1
  10    5    6 ar
  11    5    8 1
  12    6    7 1
  13    7   10 1
  14    7   18 1
  15    8    9 am
  16    8   12 2
  17    8   13 2
  18    9   10 1
  19    9   14 1
  20   10   19 1
  21   10   20 1
  22   14   21 1
  23   14   22 1
  24   14   23 1

#	End of record

