#	Name: ASD09610077
#	Creating user name:	WinNT
#	Creation time:	15. 06. 2019 21:22

#	Modifying user name:	WinNT
#	Modification time:	15. 06. 2019 21:22

#	Program:	/corina/corina34_cracker 3.40 0067  02.08.2006

@<TRIPOS>MOLECULE
ASD09610077
  40   42    0    0    0
SMALL
NO_CHARGES


@<TRIPOS>ATOM
   1 C1             0.1284     1.1469    -1.1367 C.ar    
   2 C2             0.0723    -0.1233    -0.5563 C.ar    
   3 C3             1.2296    -0.6504     0.0292 C.ar    
   4 C4             2.3829     0.1142     0.0066 C.ar    
   5 C5             2.3569     1.3628    -0.5877 C.ar    
   6 N6             1.2520     1.8358    -1.1323 N.ar    
   7 C7            -1.1866    -0.8962    -0.5601 C.2     
   8 O8            -2.1856    -0.4283    -1.0711 O.2     
   9 N9            -1.2278    -2.1200     0.0029 N.am    
  10 C10           -2.4774    -4.1968    -0.0131 C.ar    
  11 C11           -2.4423    -2.8017     0.1038 C.ar    
  12 C12           -3.6189    -2.0999     0.3207 C.ar    
  13 C13           -4.8197    -2.7763     0.4207 C.ar    
  14 C14           -4.8570    -4.1549     0.3056 C.ar    
  15 C15           -3.6944    -4.8670     0.0896 C.ar    
  16 C16           -1.2271    -4.9559    -0.2509 C.ar    
  17 C17           -0.9169    -6.0566     0.5484 C.ar    
  18 C18            0.2446    -6.7623     0.3281 C.ar    
  19 C19            1.1123    -6.3761    -0.6959 C.ar    
  20 C20            0.8011    -5.2742    -1.4956 C.ar    
  21 C21           -0.3635    -4.5730    -1.2777 C.ar    
  22 C22            2.3208    -7.1094    -0.9254 C.1     
  23 C23            3.3115    -7.7105    -1.1135 C.1     
  24 C24            4.5537    -8.4642    -1.3494 C.3     
  25 Cl25          -1.2912     1.8196    -1.8755 Cl      
  26 H26            1.2224    -1.6285     0.4870 H       
  27 H27            3.2942    -0.2603     0.4490 H       
  28 H28            3.2559     1.9610    -0.6059 H       
  29 H29           -0.4137    -2.5273     0.3380 H       
  30 H30           -3.5965    -1.0240     0.4119 H       
  31 H31           -5.7336    -2.2264     0.5900 H       
  32 H32           -5.7997    -4.6758     0.3853 H       
  33 H33           -3.7282    -5.9427     0.0000 H       
  34 H34           -1.5878    -6.3549     1.3404 H       
  35 H35            0.4848    -7.6141     0.9471 H       
  36 H36            1.4717    -4.9750    -2.2876 H       
  37 H37           -0.6065    -3.7235    -1.8988 H       
  38 H38            5.0967    -8.0180    -2.1827 H       
  39 H39            5.1735    -8.4327    -0.4534 H       
  40 H40            4.3108    -9.4999    -1.5870 H       
@<TRIPOS>BOND
   1    1    2 ar
   2    1    6 ar
   3    1   25 1
   4    2    3 ar
   5    2    7 1
   6    3    4 ar
   7    3   26 1
   8    4    5 ar
   9    4   27 1
  10    5    6 ar
  11    5   28 1
  12    7    8 2
  13    7    9 am
  14    9   11 1
  15    9   29 1
  16   10   11 ar
  17   10   15 ar
  18   10   16 1
  19   11   12 ar
  20   12   13 ar
  21   12   30 1
  22   13   14 ar
  23   13   31 1
  24   14   15 ar
  25   14   32 1
  26   15   33 1
  27   16   17 ar
  28   16   21 ar
  29   17   18 ar
  30   17   34 1
  31   18   19 ar
  32   18   35 1
  33   19   20 ar
  34   19   22 1
  35   20   21 ar
  36   20   36 1
  37   21   37 1
  38   22   23 3
  39   23   24 1
  40   24   38 1
  41   24   39 1
  42   24   40 1

#	End of record

