#	Name: ASD02038018
#	Creating user name:	WinNT
#	Creation time:	15. 06. 2019 20:16

#	Modifying user name:	WinNT
#	Modification time:	15. 06. 2019 20:16

#	Program:	/corina/corina34_cracker 3.40 0067  02.08.2006

@<TRIPOS>MOLECULE
ASD02038018
  57   60    0    0    0
SMALL
NO_CHARGES


@<TRIPOS>ATOM
   1 C1            -0.0167     1.3780     0.0096 C.ar    
   2 C2             1.2782     2.1489     0.0014 C.3     
   3 N3             2.8325     3.0926    -1.6756 N.am    
   4 C4             1.6963     2.4135    -1.4221 C.2     
   5 C5             7.0285     3.0203    -2.3795 C.3     
   6 O6             7.8858     3.7022    -1.4619 O.3     
   7 C7             9.2096     3.3959    -1.5098 C.ar    
   8 C8            10.0976     4.0211    -0.6467 C.ar    
   9 C9             9.6710     2.4540    -2.4181 C.ar    
  10 C10           11.0150     2.1415    -2.4669 C.ar    
  11 C11           11.9051     2.7709    -1.6069 C.ar    
  12 C12           11.4419     3.7100    -0.6952 C.ar    
  13 N13           13.2690     2.4569    -1.6537 N.am    
  14 C14           14.0738     2.7582    -0.6183 C.2     
  15 C15           13.5242     3.4200     0.6166 C.3     
  16 C16           12.4102     4.3919     0.2361 C.3     
  17 O17            1.0103     2.0153    -2.3396 O.2     
  18 O18           15.2557     2.4931    -0.6808 O.2     
  19 C19            3.2532     3.3583    -3.0580 C.3     
  20 C20            4.6889     2.8566    -3.2415 C.3     
  21 C21            5.5871     3.4924    -2.1780 C.3     
  22 C22            5.1047     3.0775    -0.7861 C.3     
  23 C23            3.6708     3.5866    -0.5747 C.3     
  24 C24            0.0021    -0.0041     0.0020 C.ar    
  25 C25           -1.1854    -0.7117     0.0096 C.ar    
  26 C26           -2.3926    -0.0365     0.0247 C.ar    
  27 C27           -2.4107     1.3471     0.0323 C.ar    
  28 C28           -1.2229     2.0534     0.0305 C.ar    
  29 Cl29          -3.8842    -0.9245     0.0336 Cl      
  30 C30           -3.7254     2.0835     0.0484 C.3     
  31 H31            1.1401     3.0967     0.5217 H       
  32 H32            2.0505     1.5673     0.5048 H       
  33 H33            7.3426     3.2378    -3.4004 H       
  34 H34            7.0872     1.9465    -2.2023 H       
  35 H35            9.7374     4.7514     0.0629 H       
  36 H36            8.9784     1.9648    -3.0870 H       
  37 H37           11.3737     1.4076    -3.1734 H       
  38 H38           13.6359     2.0190    -2.4376 H       
  39 H39           13.1240     2.6596     1.2872 H       
  40 H40           14.3227     3.9628     1.1223 H       
  41 H41           12.8406     5.2605    -0.2623 H       
  42 H42           11.8853     4.7128     1.1359 H       
  43 H43            2.5920     2.8344    -3.7483 H       
  44 H44            3.2130     4.4301    -3.2526 H       
  45 H45            4.7116     1.7720    -3.1358 H       
  46 H46            5.0471     3.1335    -4.2330 H       
  47 H47            5.5447     4.5778    -2.2684 H       
  48 H48            5.1235     1.9908    -0.7035 H       
  49 H49            5.7588     3.5117    -0.0300 H       
  50 H50            3.6675     4.6766    -0.5665 H       
  51 H51            3.2856     3.2109     0.3733 H       
  52 H52            0.9446    -0.5312    -0.0102 H       
  53 H53           -1.1706    -1.7916     0.0033 H       
  54 H54           -1.2369     3.1333     0.0365 H       
  55 H55           -4.0329     2.2556     1.0799 H       
  56 H56           -3.6122     3.0403    -0.4614 H       
  57 H57           -4.4820     1.4874    -0.4617 H       
@<TRIPOS>BOND
   1    1   24 ar
   2    1    2 1
   3    1   28 ar
   4    2    4 1
   5    2   31 1
   6    2   32 1
   7    3    4 am
   8    3   19 1
   9    3   23 1
  10    4   17 2
  11    5    6 1
  12    5   21 1
  13    5   33 1
  14    5   34 1
  15    6    7 1
  16    7    8 ar
  17    7    9 ar
  18    8   12 ar
  19    8   35 1
  20    9   10 ar
  21    9   36 1
  22   10   11 ar
  23   10   37 1
  24   11   12 ar
  25   11   13 1
  26   12   16 1
  27   13   14 am
  28   13   38 1
  29   14   15 1
  30   14   18 2
  31   15   16 1
  32   15   39 1
  33   15   40 1
  34   16   41 1
  35   16   42 1
  36   19   20 1
  37   19   43 1
  38   19   44 1
  39   20   21 1
  40   20   45 1
  41   20   46 1
  42   21   22 1
  43   21   47 1
  44   22   23 1
  45   22   48 1
  46   22   49 1
  47   23   50 1
  48   23   51 1
  49   24   25 ar
  50   24   52 1
  51   25   26 ar
  52   25   53 1
  53   26   27 ar
  54   26   29 1
  55   27   28 ar
  56   27   30 1
  57   28   54 1
  58   30   55 1
  59   30   56 1
  60   30   57 1

#	End of record

