#	Name: ASD03570001
#	Creating user name:	WinNT
#	Creation time:	15. 06. 2019 20:43

#	Modifying user name:	WinNT
#	Modification time:	15. 06. 2019 20:43

#	Program:	/corina/corina34_cracker 3.40 0067  02.08.2006

@<TRIPOS>MOLECULE
ASD03570001
  26   28    0    0    0
SMALL
NO_CHARGES


@<TRIPOS>ATOM
   1 C1            -0.0672     1.0602    -0.0062 C.ar    
   2 C2             0.0764    -0.3102    -0.0442 C.ar    
   3 C3             1.3384    -0.8898    -0.0637 C.ar    
   4 C4             2.4749    -0.0863    -0.0448 C.ar    
   5 C5             2.3173     1.3136    -0.0059 C.ar    
   6 C6             1.0590     1.8792     0.0131 C.ar    
   7 N7             3.8084    -0.3930    -0.0570 N.2     
   8 C8             4.5731     0.6639    -0.0301 C.2     
   9 C9             3.6977     1.8694     0.0055 C.2     
  10 C10            6.0503     0.6652    -0.0347 C.ar    
  11 N11            6.7111    -0.4852     0.0424 N.ar    
  12 C12            8.0273    -0.5261     0.0408 C.ar    
  13 C13            8.7747     0.6353    -0.0413 C.ar    
  14 C14            8.1253     1.8597    -0.1235 C.ar    
  15 C15            6.7421     1.8751    -0.1258 C.ar    
  16 O16            4.0332     3.0351     0.0360 O.2     
  17 O17            4.3061    -1.7181    -0.0943 O.3     
  18 H18           -1.0538     1.4992     0.0042 H       
  19 H19           -0.8012    -0.9395    -0.0587 H       
  20 H20            1.4381    -1.9648    -0.0931 H       
  21 H21            0.9478     2.9531     0.0426 H       
  22 H22            8.5305    -1.4796     0.1049 H       
  23 H23            9.8537     0.5899    -0.0411 H       
  24 H24            8.6876     2.7794    -0.1884 H       
  25 H25            6.2049     2.8099    -0.1889 H       
  26 H26            5.2673    -1.7749    -0.1836 H       
@<TRIPOS>BOND
   1    1    2 ar
   2    1    6 ar
   3    1   18 1
   4    2    3 ar
   5    2   19 1
   6    3    4 ar
   7    3   20 1
   8    4    5 ar
   9    4    7 1
  10    5    6 ar
  11    5    9 1
  12    6   21 1
  13    7    8 2
  14    7   17 1
  15    8    9 1
  16    8   10 1
  17    9   16 2
  18   10   11 ar
  19   10   15 ar
  20   11   12 ar
  21   12   13 ar
  22   12   22 1
  23   13   14 ar
  24   13   23 1
  25   14   15 ar
  26   14   24 1
  27   15   25 1
  28   17   26 1

#	End of record

