#	Name: ASD03910001
#	Creating user name:	WinNT
#	Creation time:	15. 06. 2019 20:47

#	Modifying user name:	WinNT
#	Modification time:	15. 06. 2019 20:47

#	Program:	/corina/corina34_cracker 3.40 0067  02.08.2006

@<TRIPOS>MOLECULE
ASD03910001
  47   48    0    0    0
SMALL
NO_CHARGES


@<TRIPOS>ATOM
   1 C1             1.0638    -0.4407     0.7518 C.ar    
   2 C2             0.0033    -0.0063    -0.0216 C.ar    
   3 C3             0.1285     1.1340    -0.7942 C.ar    
   4 C4             1.3140     1.8421    -0.7957 C.ar    
   5 C5             2.3812     1.4084    -0.0197 C.ar    
   6 C6             2.2522     0.2635     0.7552 C.ar    
   7 N7             3.5840     2.1234    -0.0193 N.am    
   8 C8            -1.0300     1.6038    -1.6358 C.3     
   9 C9             3.5687     3.4678    -0.1137 C.2     
  10 C10            4.8554     4.2452    -0.0077 C.3     
  11 O11            2.5195     4.0519    -0.2839 O.2     
  12 C12            4.5653     5.7177    -0.1449 C.ar    
  13 C13            4.2854     6.4746     0.9774 C.ar    
  14 C14            4.0193     7.8252     0.8516 C.ar    
  15 C15            4.0336     8.4191    -0.3966 C.ar    
  16 C16            4.3145     7.6624    -1.5189 C.ar    
  17 C17            4.5848     6.3126    -1.3925 C.ar    
  18 C18            3.7426     9.8913    -0.5340 C.3     
  19 C19            5.0482    10.6816    -0.4254 C.3     
  20 C20            4.7571    12.1538    -0.5628 C.2     
  21 C21            5.6945    10.4143     0.9353 C.3     
  22 C22            6.0030    10.2445    -1.5382 C.3     
  23 O23            3.6219    12.5322    -0.7303 O.2     
  24 O24            5.7590    13.0448    -0.4990 O.3     
  25 H25            0.9615    -1.3290     1.3575 H       
  26 H26           -0.9246    -0.5588    -0.0228 H       
  27 H27            1.4113     2.7321    -1.3997 H       
  28 H28            3.0801    -0.0761     1.3599 H       
  29 H29            4.4287     1.6516     0.0489 H       
  30 H30           -1.6488     2.2864    -1.0535 H       
  31 H31           -0.6521     2.1194    -2.5187 H       
  32 H32           -1.6269     0.7454    -1.9440 H       
  33 H33            5.3163     4.0545     0.9615 H       
  34 H34            5.5348     3.9333    -0.8009 H       
  35 H35            4.2742     6.0106     1.9526 H       
  36 H36            3.7999     8.4164     1.7283 H       
  37 H37            4.3253     8.1263    -2.4941 H       
  38 H38            4.8042     5.7214    -2.2693 H       
  39 H39            3.2821    10.0817    -1.5034 H       
  40 H40            3.0624    10.2027     0.2588 H       
  41 H41            5.9050     9.3494     1.0347 H       
  42 H42            6.6246    10.9773     1.0127 H       
  43 H43            5.0143    10.7257     1.7281 H       
  44 H44            5.5425    10.4349    -2.5076 H       
  45 H45            6.9331    10.8075    -1.4609 H       
  46 H46            6.2135     9.1796    -1.4389 H       
  47 H47            5.5233    13.9780    -0.5925 H       
@<TRIPOS>BOND
   1    1    2 ar
   2    1    6 ar
   3    1   25 1
   4    2    3 ar
   5    2   26 1
   6    3    4 ar
   7    3    8 1
   8    4    5 ar
   9    4   27 1
  10    5    6 ar
  11    5    7 1
  12    6   28 1
  13    7    9 am
  14    7   29 1
  15    8   30 1
  16    8   31 1
  17    8   32 1
  18    9   10 1
  19    9   11 2
  20   10   12 1
  21   10   33 1
  22   10   34 1
  23   12   13 ar
  24   12   17 ar
  25   13   14 ar
  26   13   35 1
  27   14   15 ar
  28   14   36 1
  29   15   16 ar
  30   15   18 1
  31   16   17 ar
  32   16   37 1
  33   17   38 1
  34   18   19 1
  35   18   39 1
  36   18   40 1
  37   19   20 1
  38   19   21 1
  39   19   22 1
  40   20   23 2
  41   20   24 1
  42   21   41 1
  43   21   42 1
  44   21   43 1
  45   22   44 1
  46   22   45 1
  47   22   46 1
  48   24   47 1

#	End of record

