#	Name: ASD01209109
#	Creating user name:	WinNT
#	Creation time:	15. 06. 2019 19:11

#	Modifying user name:	WinNT
#	Modification time:	15. 06. 2019 19:11

#	Program:	/corina/corina34_cracker 3.40 0067  02.08.2006

@<TRIPOS>MOLECULE
ASD01209109
  81   83    0    0    0
SMALL
NO_CHARGES


@<TRIPOS>ATOM
   1 C1             0.4549     2.1418    -0.6575 C.ar    
   2 C2             0.4584     0.7738    -0.8871 C.ar    
   3 C3            -0.7319     0.0605    -0.8712 C.ar    
   4 C4            -1.9291     0.7124    -0.6258 C.ar    
   5 C5            -1.9370     2.0886    -0.3943 C.ar    
   6 C6            -0.7373     2.8009    -0.4060 C.ar    
   7 O7             1.6235     2.8355    -0.6737 O.3     
   8 C8             1.5367     4.2558    -0.5417 C.3     
   9 C9             2.7675     4.9034    -1.1793 C.3     
  10 O10           -0.7230    -1.2795    -1.0972 O.3     
  11 C11           -1.2671    -1.7347    -2.2561 C.ar    
  12 C12           -1.7369    -0.8361    -3.2033 C.ar    
  13 C13           -1.3489    -3.0987    -2.4969 C.ar    
  14 C14           -1.9025    -3.5588    -3.6759 C.ar    
  15 C15           -2.3747    -2.6613    -4.6159 C.ar    
  16 C16           -2.2896    -1.3014    -4.3807 C.ar    
  17 S17           -3.0798    -3.2515    -6.1189 S.o2    
  18 O18           -2.8766    -2.1902    -7.0418 O.2     
  19 O19           -2.4720    -4.5207    -6.3165 O.2     
  20 C20           -4.8449    -3.4421    -5.7466 C.3     
  21 C21           -3.2121     2.7888    -0.1324 C.2     
  22 N22           -4.3694     2.0981    -0.1170 N.am    
  23 O23           -3.2171     3.9873     0.0689 O.2     
  24 C24           -5.5609     2.7523     0.1277 C.2     
  25 S25           -5.7215     4.4855     0.4357 S.3     
  26 C26           -7.5323     4.4652     0.6373 C.3     
  27 C27           -7.8932     2.9858     0.4308 C.3     
  28 N28           -6.7151     2.1925     0.1596 N.2     
  29 C29           -8.5805     2.4565     1.6911 C.3     
  30 P30           -9.1453     0.7473     1.4030 P.3     
  31 O31           -8.0019    -0.0823     0.9617 O.2     
  32 C32            1.4755     4.6273     0.9413 C.3     
  33 O33           -9.7504     0.1448     2.7679 O.3     
  34 C34           -8.9414    -0.1867     3.8982 C.3     
  35 C35           -9.4671     0.5460     5.1342 C.3     
  36 C36           -8.9956    -1.6967     4.1390 C.3     
  37 O37            3.9364     4.5266    -0.4487 O.3     
  38 C38            5.1481     5.0811    -0.9646 C.3     
  39 O39          -10.2829     0.7429     0.2637 O.3     
  40 C40          -10.8791    -0.4558    -0.2361 C.3     
  41 C41          -12.3644    -0.4779     0.1306 C.3     
  42 C42          -10.7288    -0.5040    -1.7580 C.3     
  43 H43            1.3901     0.2625    -1.0791 H       
  44 H44           -2.8550     0.1567    -0.6139 H       
  45 H45           -0.7390     3.8661    -0.2273 H       
  46 H46            0.6372     4.6130    -1.0431 H       
  47 H47            2.8606     4.5679    -2.2122 H       
  48 H48            2.6596     5.9879    -1.1579 H       
  49 H49           -1.6707     0.2262    -3.0201 H       
  50 H50           -0.9796    -3.8001    -1.7634 H       
  51 H51           -1.9664    -4.6204    -3.8638 H       
  52 H52           -2.6594    -0.6025    -5.1163 H       
  53 H53           -5.2605    -2.4781    -5.4531 H       
  54 H54           -5.3655    -3.8079    -6.6317 H       
  55 H55           -4.9694    -4.1548    -4.9313 H       
  56 H56           -4.3654     1.1415    -0.2777 H       
  57 H57           -7.8115     4.7931     1.6386 H       
  58 H58           -8.0105     5.0871    -0.1195 H       
  59 H59           -8.5798     2.8996    -0.4114 H       
  60 H60           -7.8758     2.4710     2.5225 H       
  61 H61           -9.4371     3.0869     1.9298 H       
  62 H62            1.4092     5.7106     1.0420 H       
  63 H63            0.5986     4.1659     1.3955 H       
  64 H64            2.3749     4.2701     1.4428 H       
  65 H65           -7.9111     0.1141     3.7084 H       
  66 H66          -10.4975     0.2451     5.3240 H       
  67 H67           -8.8501     0.2931     5.9964 H       
  68 H68           -9.4285     1.6217     4.9627 H       
  69 H69           -8.5403    -2.2157     3.2955 H       
  70 H70           -8.4510    -1.9389     5.0515 H       
  71 H71          -10.0342    -2.0112     4.2414 H       
  72 H72            5.9884     4.7479    -0.3555 H       
  73 H73            5.2907     4.7493    -1.9930 H       
  74 H74            5.0896     6.1693    -0.9388 H       
  75 H75          -10.3829    -1.3199     0.2055 H       
  76 H76          -12.8774     0.3358    -0.3820 H       
  77 H77          -12.7994    -1.4301    -0.1730 H       
  78 H78          -12.4744    -0.3552     1.2081 H       
  79 H79          -11.1836    -1.4182    -2.1392 H       
  80 H80          -11.2250     0.3602    -2.1996 H       
  81 H81           -9.6707    -0.4882    -2.0192 H       
@<TRIPOS>BOND
   1    1    2 ar
   2    1    7 1
   3    1    6 ar
   4    2    3 ar
   5    2   43 1
   6    3    4 ar
   7    3   10 1
   8    4    5 ar
   9    4   44 1
  10    5    6 ar
  11    5   21 1
  12    6   45 1
  13    7    8 1
  14    8    9 1
  15    8   32 1
  16    8   46 1
  17    9   37 1
  18    9   47 1
  19    9   48 1
  20   10   11 1
  21   11   12 ar
  22   11   13 ar
  23   12   16 ar
  24   12   49 1
  25   13   14 ar
  26   13   50 1
  27   14   15 ar
  28   14   51 1
  29   15   16 ar
  30   15   17 1
  31   16   52 1
  32   17   18 2
  33   17   19 2
  34   17   20 1
  35   20   53 1
  36   20   54 1
  37   20   55 1
  38   21   22 am
  39   21   23 2
  40   22   24 1
  41   22   56 1
  42   24   25 1
  43   24   28 2
  44   25   26 1
  45   26   27 1
  46   26   57 1
  47   26   58 1
  48   27   28 1
  49   27   29 1
  50   27   59 1
  51   29   30 1
  52   29   60 1
  53   29   61 1
  54   30   31 2
  55   30   33 1
  56   30   39 1
  57   32   62 1
  58   32   63 1
  59   32   64 1
  60   33   34 1
  61   34   35 1
  62   34   36 1
  63   34   65 1
  64   35   66 1
  65   35   67 1
  66   35   68 1
  67   36   69 1
  68   36   70 1
  69   36   71 1
  70   37   38 1
  71   38   72 1
  72   38   73 1
  73   38   74 1
  74   39   40 1
  75   40   41 1
  76   40   42 1
  77   40   75 1
  78   41   76 1
  79   41   77 1
  80   41   78 1
  81   42   79 1
  82   42   80 1
  83   42   81 1

#	End of record

