#	Name: ASD01151033
#	Creating user name:	WinNT
#	Creation time:	15. 06. 2019 19:05

#	Modifying user name:	WinNT
#	Modification time:	15. 06. 2019 19:05

#	Program:	/corina/corina34_cracker 3.40 0067  02.08.2006

@<TRIPOS>MOLECULE
ASD01151033
  27   27    0    0    0
SMALL
NO_CHARGES


@<TRIPOS>ATOM
   1 C1            -0.0184     1.5028     0.0103 C.3     
   2 C2             0.0021    -0.0041     0.0020 C.2     
   3 C3             0.0218    -0.6651     1.1328 C.2     
   4 C4            -0.0002    -0.7505    -1.3071 C.3     
   5 C5            -1.2608    -0.3963    -2.0990 C.3     
   6 C6            -1.1528    -0.9167    -3.5024 C.2     
   7 C7            -0.0414    -1.2795    -4.0579 C.2     
   8 C8             1.2933    -1.2394    -3.3730 C.3     
   9 C9             1.2242    -0.3417    -2.1359 C.3     
  10 O10            1.6628    -2.5621    -2.9779 O.3     
  11 C11           -0.0906    -1.7723    -5.4812 C.3     
  12 H12            1.0042     1.8801     0.0026 H       
  13 H13           -0.5455     1.8639    -0.8728 H       
  14 H14           -0.5286     1.8543     0.9071 H       
  15 H15            0.0234    -0.1302     2.0711 H       
  16 H16            0.0364    -1.7450     1.1269 H       
  17 H17            0.0238    -1.8235    -1.1171 H       
  18 H18           -2.1292    -0.8422    -1.6141 H       
  19 H19           -1.3796     0.6869    -2.1235 H       
  20 H20           -2.0589    -0.9937    -4.0851 H       
  21 H21            2.0415    -0.8481    -4.0623 H       
  22 H22            1.1266     0.6994    -2.4436 H       
  23 H23            2.1286    -0.4678    -1.5407 H       
  24 H24            1.7369    -3.1859    -3.7131 H       
  25 H25           -1.1194    -1.7435    -5.8403 H       
  26 H26            0.5312    -1.1337    -6.1086 H       
  27 H27            0.2806    -2.7962    -5.5243 H       
@<TRIPOS>BOND
   1    1    2 1
   2    1   12 1
   3    1   13 1
   4    1   14 1
   5    2    3 2
   6    2    4 1
   7    3   15 1
   8    3   16 1
   9    4    5 1
  10    4    9 1
  11    4   17 1
  12    5    6 1
  13    5   18 1
  14    5   19 1
  15    6    7 2
  16    6   20 1
  17    7    8 1
  18    7   11 1
  19    8    9 1
  20    8   10 1
  21    8   21 1
  22    9   22 1
  23    9   23 1
  24   10   24 1
  25   11   25 1
  26   11   26 1
  27   11   27 1

#	End of record

