#	Name: ASD01810291
#	Creating user name:	WinNT
#	Creation time:	15. 06. 2019 19:24

#	Modifying user name:	WinNT
#	Modification time:	15. 06. 2019 19:24

#	Program:	/corina/corina34_cracker 3.40 0067  02.08.2006

@<TRIPOS>MOLECULE
ASD01810291
  43   46    0    0    0
SMALL
NO_CHARGES


@<TRIPOS>ATOM
   1 C1             1.1597     2.2502    -0.5159 C.ar    
   2 C2             0.7828     0.9161    -0.5004 C.ar    
   3 C3             1.7243    -0.0813    -0.3477 C.ar    
   4 C4             3.0713     0.2477    -0.2072 C.ar    
   5 C5             3.4520     1.6004    -0.2236 C.ar    
   6 C6             2.4881     2.5999    -0.3786 C.ar    
   7 N7             4.0212    -0.7401    -0.0534 N.pl3   
   8 C8             5.3264    -0.4758     0.0859 C.2     
   9 C9             5.8198     0.8134     0.0854 C.2     
  10 C10            4.8794     1.9347    -0.0742 C.2     
  11 O11            5.2650     3.0907    -0.0812 O.2     
  12 C12            3.5837    -2.1382    -0.0416 C.3     
  13 C13            3.4399    -2.6316    -1.4583 C.ar    
  14 C14            4.5229    -2.5802    -2.3204 C.ar    
  15 C15            4.3952    -3.0323    -3.6208 C.ar    
  16 C16            3.1753    -3.5395    -4.0619 C.ar    
  17 C17            2.0897    -3.5883    -3.1893 C.ar    
  18 C18            2.2287    -3.1395    -1.8916 C.ar    
  19 C19            3.0318    -4.0258    -5.4565 C.ar    
  20 C20            7.2596     1.0623     0.2415 C.2     
  21 O21            7.7293     2.3259     0.2394 O.3     
  22 O22            8.0272     0.1288     0.3726 O.2     
  23 F23            5.7050    -2.0874    -1.8903 F       
  24 F24            2.8539     3.9003    -0.3947 F       
  25 F25            1.3402    -1.3764    -0.3338 F       
  26 C26            1.8121    -4.5363    -5.9084 C.ar    
  27 C27            1.7296    -4.9768    -7.2184 C.ar    
  28 C28            2.8463    -4.8982    -8.0300 C.ar    
  29 N29            3.9847    -4.4112    -7.5750 N.ar    
  30 C30            4.1094    -3.9754    -6.3383 C.ar    
  31 H31            0.4115     3.0190    -0.6404 H       
  32 H32           -0.2594     0.6545    -0.6087 H       
  33 H33            6.0161    -1.2986     0.2030 H       
  34 H34            4.3222    -2.7456     0.4815 H       
  35 H35            2.6235    -2.2141     0.4688 H       
  36 H36            5.2394    -2.9920    -4.2932 H       
  37 H37            1.1418    -3.9804    -3.5271 H       
  38 H38            1.3875    -3.1777    -1.2153 H       
  39 H39            8.6838     2.4397     0.3451 H       
  40 H40            0.9557    -4.5863    -5.2524 H       
  41 H41            0.8031    -5.3778    -7.6021 H       
  42 H42            2.7856    -5.2413    -9.0523 H       
  43 H43            5.0580    -3.5834    -6.0022 H       
@<TRIPOS>BOND
   1    1    2 ar
   2    1    6 ar
   3    1   31 1
   4    2    3 ar
   5    2   32 1
   6    3    4 ar
   7    3   25 1
   8    4    5 ar
   9    4    7 1
  10    5    6 ar
  11    5   10 1
  12    6   24 1
  13    7    8 1
  14    7   12 1
  15    8    9 2
  16    8   33 1
  17    9   10 1
  18    9   20 1
  19   10   11 2
  20   12   13 1
  21   12   34 1
  22   12   35 1
  23   13   14 ar
  24   13   18 ar
  25   14   15 ar
  26   14   23 1
  27   15   16 ar
  28   15   36 1
  29   16   17 ar
  30   16   19 1
  31   17   18 ar
  32   17   37 1
  33   18   38 1
  34   19   26 ar
  35   19   30 ar
  36   20   21 1
  37   20   22 2
  38   21   39 1
  39   26   27 ar
  40   26   40 1
  41   27   28 ar
  42   27   41 1
  43   28   29 ar
  44   28   42 1
  45   29   30 ar
  46   30   43 1

#	End of record

