#	Name: ASD01915517
#	Creating user name:	WinNT
#	Creation time:	15. 06. 2019 20:05

#	Modifying user name:	WinNT
#	Modification time:	15. 06. 2019 20:05

#	Program:	/corina/corina34_cracker 3.40 0067  02.08.2006

@<TRIPOS>MOLECULE
ASD01915517
  44   47    0    0    0
SMALL
NO_CHARGES


@<TRIPOS>ATOM
   1 C1             0.0139     1.4541     0.2458 C.2     
   2 N2             0.0545     0.1119    -0.0589 N.pl3   
   3 C3            -1.1713    -0.6350    -0.3659 C.3     
   4 C4            -2.3436    -0.0158     0.3933 C.3     
   5 N5            -2.3874     1.4372     0.2702 N.am    
   6 C6            -1.2595     2.1866     0.3168 C.2     
   7 C7             1.3035     1.8568     0.4509 C.2     
   8 C8             2.0776     0.7033     0.2658 C.2     
   9 N9             1.2661    -0.2859    -0.0277 N.2     
  10 C10            3.5774     0.6144     0.3827 C.3     
  11 O11            4.1063     1.8995     0.7156 O.3     
  12 C12            5.4544     1.9936     0.8592 C.ar    
  13 C13           -3.6230     2.0717     0.1001 C.ar    
  14 O14           -1.2979     3.3986     0.4128 O.2     
  15 C15            6.0355     3.2113     1.1819 C.ar    
  16 C16            6.2513     0.8708     0.6889 C.ar    
  17 C17            7.6214     0.9691     0.8353 C.ar    
  18 C18            8.1987     2.1851     1.1514 C.ar    
  19 C19            7.4061     3.3043     1.3273 C.ar    
  20 C20           -3.9413     2.6593    -1.1173 C.ar    
  21 C21           -5.1615     3.2846    -1.2831 C.ar    
  22 C22           -6.0673     3.3260    -0.2365 C.ar    
  23 C23           -5.7520     2.7407     0.9783 C.ar    
  24 C24           -4.5351     2.1098     1.1467 C.ar    
  25 F25           -7.2602     3.9385    -0.4007 F       
  26 C26           -3.6489    -0.5977    -0.1530 C.3     
  27 H27           -1.3666    -0.5890    -1.4373 H       
  28 H28           -1.0496    -1.6747    -0.0621 H       
  29 H29           -2.2578    -0.2775     1.4479 H       
  30 H30            1.6506     2.8484     0.7010 H       
  31 H31            3.8393    -0.0996     1.1635 H       
  32 H32            3.9969     0.2839    -0.5675 H       
  33 H33            5.4169     4.0859     1.3190 H       
  34 H34            5.8009    -0.0793     0.4423 H       
  35 H35            8.2422     0.0952     0.7032 H       
  36 H36            9.2700     2.2598     1.2654 H       
  37 H37            7.8594     4.2531     1.5738 H       
  38 H38           -3.2349     2.6276    -1.9336 H       
  39 H39           -5.4092     3.7420    -2.2296 H       
  40 H40           -6.4598     2.7744     1.7933 H       
  41 H41           -4.2897     1.6532     2.0942 H       
  42 H42           -3.6047    -1.6862    -0.1167 H       
  43 H43           -4.4845    -0.2476     0.4531 H       
  44 H44           -3.7875    -0.2739    -1.1845 H       
@<TRIPOS>BOND
   1    1    2 1
   2    1    7 2
   3    1    6 1
   4    2    3 1
   5    2    9 1
   6    3    4 1
   7    3   27 1
   8    3   28 1
   9    4    5 1
  10    4   26 1
  11    4   29 1
  12    5    6 am
  13    5   13 1
  14    6   14 2
  15    7    8 1
  16    7   30 1
  17    8    9 2
  18    8   10 1
  19   10   11 1
  20   10   31 1
  21   10   32 1
  22   11   12 1
  23   12   15 ar
  24   12   16 ar
  25   13   20 ar
  26   13   24 ar
  27   15   19 ar
  28   15   33 1
  29   16   17 ar
  30   16   34 1
  31   17   18 ar
  32   17   35 1
  33   18   19 ar
  34   18   36 1
  35   19   37 1
  36   20   21 ar
  37   20   38 1
  38   21   22 ar
  39   21   39 1
  40   22   23 ar
  41   22   25 1
  42   23   24 ar
  43   23   40 1
  44   24   41 1
  45   26   42 1
  46   26   43 1
  47   26   44 1

#	End of record

