#	Name: ASD08780009
#	Creating user name:	WinNT
#	Creation time:	15. 06. 2019 21:19

#	Modifying user name:	WinNT
#	Modification time:	15. 06. 2019 21:19

#	Program:	/corina/corina34_cracker 3.40 0067  02.08.2006

@<TRIPOS>MOLECULE
ASD08780009
  17   17    0    0    0
SMALL
NO_CHARGES


@<TRIPOS>ATOM
   1 C1            -0.0172     1.4149     0.0098 C.ar    
   2 C2             0.0021    -0.0041     0.0020 C.ar    
   3 C3             1.3125    -0.6733    -0.0141 C.ar    
   4 C4             2.4425     0.1331    -0.0205 C.ar    
   5 C5             2.2948     1.5071    -0.0117 C.ar    
   6 N6             1.1079     2.0895     0.0027 N.ar    
   7 O7             1.4124    -2.0239    -0.0218 O.3     
   8 C8             2.7299    -2.5769    -0.0374 C.3     
   9 N9            -1.1228    -0.7032     0.0094 N.2     
  10 C10           -2.2250    -0.1138     0.0235 C.1     
  11 S11           -3.5948     0.6188     0.0410 S.2     
  12 H12           -0.9605     1.9407     0.0171 H       
  13 H13            3.4277    -0.3092    -0.0319 H       
  14 H14            3.1794     2.1266    -0.0165 H       
  15 H15            3.2552    -2.2392    -0.9308 H       
  16 H16            3.2724    -2.2482     0.8490 H       
  17 H17            2.6672    -3.6651    -0.0423 H       
@<TRIPOS>BOND
   1    1    2 ar
   2    1    6 ar
   3    1   12 1
   4    2    3 ar
   5    2    9 1
   6    3    4 ar
   7    3    7 1
   8    4    5 ar
   9    4   13 1
  10    5    6 ar
  11    5   14 1
  12    7    8 1
  13    8   15 1
  14    8   16 1
  15    8   17 1
  16    9   10 2
  17   10   11 2

#	End of record

