#	Name: ASD01940589
#	Creating user name:	WinNT
#	Creation time:	15. 06. 2019 20:12

#	Modifying user name:	WinNT
#	Modification time:	15. 06. 2019 20:12

#	Program:	/corina/corina34_cracker 3.40 0067  02.08.2006

@<TRIPOS>MOLECULE
ASD01940589
  61   63    0    0    0
SMALL
NO_CHARGES


@<TRIPOS>ATOM
   1 C1            -0.7258     2.7046     0.4181 C.ar    
   2 C2            -1.7954     2.6583    -0.4657 C.ar    
   3 C3            -1.6165     3.0375    -1.7903 C.ar    
   4 C4            -0.3756     3.4597    -2.2273 C.ar    
   5 C5             0.6900     3.5064    -1.3492 C.ar    
   6 C6             0.5172     3.1291    -0.0242 C.ar    
   7 N7            -3.0495     2.2306    -0.0241 N.am    
   8 S8            -3.5925     0.7157    -0.4145 S.o2    
   9 C9            -2.4312    -0.4078     0.4098 C.3     
  10 O10           -4.8763     0.6371     0.1897 O.2     
  11 O11           -3.4412     0.6420    -1.8255 O.2     
  12 O12            1.5661     3.1761     0.8383 O.3     
  13 C13            2.7894     3.4978     0.3389 C.ar    
  14 C14            3.6684     2.4953    -0.0443 C.ar    
  15 C15            4.9139     2.8207    -0.5528 C.ar    
  16 C16            5.2880     4.1473    -0.6817 C.ar    
  17 C17            4.4143     5.1563    -0.3010 C.ar    
  18 C18            3.1582     4.8319     0.2066 C.ar    
  19 N19            4.7927     6.4980    -0.4315 N.pl3   
  20 C20            5.8993     6.8393    -1.2157 C.ar    
  21 C21            6.2159     6.0856    -2.3382 C.ar    
  22 C22            7.3095     6.4249    -3.1109 C.ar    
  23 C23            8.0902     7.5142    -2.7681 C.ar    
  24 C24            7.7792     8.2679    -1.6505 C.ar    
  25 C25            6.6821     7.9379    -0.8762 C.ar    
  26 F26            6.3747     8.6774     0.2118 F       
  27 I27            9.7479     8.0233    -3.9437 I       
  28 N28            2.2689     5.8493     0.5885 N.am    
  29 S29            1.7976     5.9865     2.1700 S.o2    
  30 C30           -2.7590    -1.8520     0.0255 C.3     
  31 F31            5.7670     1.8411    -0.9239 F       
  32 O32            0.9415     7.1206     2.1834 O.2     
  33 O33            1.3077     4.6948     2.5030 O.2     
  34 C34            3.3325     6.3370     3.0710 C.3     
  35 C35            3.0460     6.3686     4.5736 C.3     
  36 O36            4.2723     6.5308     5.2891 O.3     
  37 C37            4.1157     6.5730     6.7088 C.3     
  38 H38           -0.8632     2.4146     1.4494 H       
  39 H39           -2.4478     3.0019    -2.4789 H       
  40 H40           -0.2383     3.7534    -3.2575 H       
  41 H41            1.6588     3.8365    -1.6940 H       
  42 H42           -3.6024     2.8210     0.5113 H       
  43 H43           -1.4137    -0.1710     0.0987 H       
  44 H44           -2.5173    -0.2909     1.4901 H       
  45 H45            3.3805     1.4591     0.0546 H       
  46 H46            6.2608     4.3974    -1.0786 H       
  47 H47            4.2874     7.1908     0.0219 H       
  48 H48            5.6077     5.2345    -2.6067 H       
  49 H49            7.5556     5.8387    -3.9839 H       
  50 H50            8.3911     9.1173    -1.3850 H       
  51 H51            1.9307     6.4718    -0.0742 H       
  52 H52           -3.7764    -2.0889     0.3366 H       
  53 H53           -2.6728    -1.9690    -1.0548 H       
  54 H54           -2.0611    -2.5272     0.5208 H       
  55 H55            4.0651     5.5587     2.8572 H       
  56 H56            3.7263     7.3032     2.7558 H       
  57 H57            2.3808     7.2021     4.7992 H       
  58 H58            2.5716     5.4340     4.8728 H       
  59 H59            3.4727     7.4108     6.9787 H       
  60 H60            3.6636     5.6426     7.0523 H       
  61 H61            5.0914     6.6979     7.1784 H       
@<TRIPOS>BOND
   1    1    2 ar
   2    1    6 ar
   3    1   38 1
   4    2    3 ar
   5    2    7 1
   6    3    4 ar
   7    3   39 1
   8    4    5 ar
   9    4   40 1
  10    5    6 ar
  11    5   41 1
  12    6   12 1
  13    7    8 am
  14    7   42 1
  15    8    9 1
  16    8   10 2
  17    8   11 2
  18    9   30 1
  19    9   43 1
  20    9   44 1
  21   12   13 1
  22   13   14 ar
  23   13   18 ar
  24   14   15 ar
  25   14   45 1
  26   15   16 ar
  27   15   31 1
  28   16   17 ar
  29   16   46 1
  30   17   18 ar
  31   17   19 1
  32   18   28 1
  33   19   20 1
  34   19   47 1
  35   20   21 ar
  36   20   25 ar
  37   21   22 ar
  38   21   48 1
  39   22   23 ar
  40   22   49 1
  41   23   24 ar
  42   23   27 1
  43   24   25 ar
  44   24   50 1
  45   25   26 1
  46   28   29 am
  47   28   51 1
  48   29   32 2
  49   29   33 2
  50   29   34 1
  51   30   52 1
  52   30   53 1
  53   30   54 1
  54   34   35 1
  55   34   55 1
  56   34   56 1
  57   35   36 1
  58   35   57 1
  59   35   58 1
  60   36   37 1
  61   37   59 1
  62   37   60 1
  63   37   61 1

#	End of record

