#	Name: ASD04230134
#	Creating user name:	WinNT
#	Creation time:	15. 06. 2019 20:48

#	Modifying user name:	WinNT
#	Modification time:	15. 06. 2019 20:48

#	Program:	/corina/corina34_cracker 3.40 0067  02.08.2006

@<TRIPOS>MOLECULE
ASD04230134
  42   45    0    0    0
SMALL
NO_CHARGES


@<TRIPOS>ATOM
   1 C1             1.5973     3.7548    -2.3485 C.ar    
   2 C2             2.3428     4.6453    -1.5894 C.ar    
   3 C3             3.5361     4.2653    -1.0453 C.ar    
   4 C4             4.0218     2.9676    -1.2614 C.ar    
   5 C5             3.2547     2.0507    -2.0027 C.ar    
   6 C6             2.0436     2.4616    -2.5557 C.ar    
   7 C7             5.2785     2.5715    -0.7340 C.2     
   8 C8             5.7998     1.3512    -1.1431 C.2     
   9 C9             5.0153     0.5764    -2.1218 C.2     
  10 O10            3.6786     0.7737    -2.1589 O.3     
  11 C11            7.0830     0.8520    -0.6214 C.2     
  12 N12            7.5631    -0.3365    -1.0377 N.am    
  13 O13            7.7098     1.5123     0.1852 O.2     
  14 C14            8.8310    -0.7611    -0.6273 C.ar    
  15 C15            9.0873    -2.1156    -0.4521 C.ar    
  16 C16           10.3390    -2.5399    -0.0471 C.ar    
  17 C17           11.3419    -1.6211     0.1863 C.ar    
  18 C18           11.0944    -0.2586     0.0131 C.ar    
  19 C19            9.8341     0.1691    -0.4008 C.ar    
  20 C20           12.1683     0.7285     0.2627 C.2     
  21 O21            5.5541    -0.2151    -2.8727 O.2     
  22 O22            1.3025     1.5945    -3.2958 O.3     
  23 C23           12.2290     2.0009    -0.2310 C.2     
  24 N24           13.2768     0.5385     1.0324 N.pl3   
  25 N25           14.0271     1.7209     0.9987 N.2     
  26 C26           13.4005     2.5892     0.2458 C.2     
  27 C27           13.6219    -0.6830     1.7638 C.3     
  28 H28            0.6585     4.0724    -2.7776 H       
  29 H29            1.9761     5.6482    -1.4276 H       
  30 H30            4.1054     4.9635    -0.4496 H       
  31 H31            5.8127     3.1996    -0.0366 H       
  32 H32            7.0294    -0.8975    -1.6219 H       
  33 H33            8.3060    -2.8391    -0.6326 H       
  34 H34           10.5326    -3.5939     0.0875 H       
  35 H35           12.3184    -1.9565     0.5033 H       
  36 H36            9.6370     1.2223    -0.5364 H       
  37 H37            0.6657     1.0815    -2.7796 H       
  38 H38           11.4999     2.4681    -0.8764 H       
  39 H39           13.7351     3.5930     0.0294 H       
  40 H40           14.1244    -1.3790     1.0921 H       
  41 H41           14.2849    -0.4352     2.5927 H       
  42 H42           12.7130    -1.1438     2.1508 H       
@<TRIPOS>BOND
   1    1    2 ar
   2    1    6 ar
   3    1   28 1
   4    2    3 ar
   5    2   29 1
   6    3    4 ar
   7    3   30 1
   8    4    5 ar
   9    4    7 1
  10    5    6 ar
  11    5   10 1
  12    6   22 1
  13    7    8 2
  14    7   31 1
  15    8    9 1
  16    8   11 1
  17    9   10 1
  18    9   21 2
  19   11   12 am
  20   11   13 2
  21   12   14 1
  22   12   32 1
  23   14   15 ar
  24   14   19 ar
  25   15   16 ar
  26   15   33 1
  27   16   17 ar
  28   16   34 1
  29   17   18 ar
  30   17   35 1
  31   18   19 ar
  32   18   20 1
  33   19   36 1
  34   20   24 1
  35   20   23 2
  36   22   37 1
  37   23   26 1
  38   23   38 1
  39   24   25 1
  40   24   27 1
  41   25   26 2
  42   26   39 1
  43   27   40 1
  44   27   41 1
  45   27   42 1

#	End of record

