#	Name: ASD05380082
#	Creating user name:	WinNT
#	Creation time:	15. 06. 2019 20:59

#	Modifying user name:	WinNT
#	Modification time:	15. 06. 2019 20:59

#	Program:	/corina/corina34_cracker 3.40 0067  02.08.2006

@<TRIPOS>MOLECULE
ASD05380082
  50   54    0    0    0
SMALL
NO_CHARGES


@<TRIPOS>ATOM
   1 C1            -0.2705     1.7437    -0.3083 C.ar    
   2 C2            -0.0037     0.3805    -0.5671 C.ar    
   3 C3             0.6309     2.7221    -0.7219 C.ar    
   4 C4             1.7810     2.3496    -1.3833 C.ar    
   5 C5             2.0461     1.0110    -1.6397 C.ar    
   6 C6             1.1686     0.0285    -1.2385 C.ar    
   7 N7            -0.8955    -0.5547    -0.1546 N.2     
   8 C8            -1.9853    -0.2270     0.4706 C.2     
   9 N9            -2.3226     1.0585     0.7617 N.am    
  10 C10           -1.5102     2.0810     0.4064 C.2     
  11 C11           -3.5187     1.3257     1.4396 C.ar    
  12 C12           -4.6880     1.5511     0.7253 C.ar    
  13 C13           -3.5390     1.3601     2.8277 C.ar    
  14 C14           -4.7201     1.6234     3.4934 C.ar    
  15 C15           -5.8819     1.8522     2.7790 C.ar    
  16 C16           -5.8660     1.8139     1.3968 C.ar    
  17 C17           -2.9245    -1.3265     0.8950 C.3     
  18 N18           -2.9248    -2.3861    -0.1168 N.pl3   
  19 C19           -4.0224    -3.2176    -0.2470 C.ar    
  20 N20           -5.0862    -3.0701     0.5374 N.ar    
  21 O21           -1.7993     3.2359     0.6604 O.2     
  22 C22           -4.0438    -4.2340    -1.2137 C.ar    
  23 C23           -5.1845    -5.0535    -1.3066 C.ar    
  24 N24           -6.1982    -4.8304    -0.4716 N.ar    
  25 C25           -6.1367    -3.8617     0.4162 C.ar    
  26 C26           -3.1147    -4.7079    -2.2388 C.2     
  27 C27           -3.7155    -5.7355    -2.8627 C.2     
  28 N28           -4.9563    -5.9515    -2.3123 N.pl3   
  29 C29            0.3501     4.1772    -0.4484 C.3     
  30 C30           -2.4636    -1.9017     2.2357 C.3     
  31 F31           -1.8886    -4.2081    -2.5076 F       
  32 H32            2.4820     3.1054    -1.7054 H       
  33 H33            2.9520     0.7369    -2.1600 H       
  34 H34            1.3860    -1.0095    -1.4429 H       
  35 H35           -4.6762     1.5213    -0.3542 H       
  36 H36           -2.6321     1.1808     3.3862 H       
  37 H37           -4.7365     1.6503     4.5729 H       
  38 H38           -6.8044     2.0572     3.3019 H       
  39 H39           -6.7748     1.9934     0.8417 H       
  40 H40           -3.9319    -0.9236     0.9995 H       
  41 H41           -2.1553    -2.5045    -0.6953 H       
  42 H42           -6.9796    -3.7075     1.0735 H       
  43 H43           -3.2881    -6.3053    -3.6745 H       
  44 H44           -5.5785    -6.6396    -2.5955 H       
  45 H45            0.6697     4.4249     0.5638 H       
  46 H46            0.8961     4.7931    -1.1629 H       
  47 H47           -0.7188     4.3660    -0.5483 H       
  48 H48           -1.4445    -2.2761     2.1394 H       
  49 H49           -2.4936    -1.1209     2.9956 H       
  50 H50           -3.1245    -2.7181     2.5273 H       
@<TRIPOS>BOND
   1    1    2 ar
   2    1    3 ar
   3    1   10 1
   4    2    7 1
   5    2    6 ar
   6    3    4 ar
   7    3   29 1
   8    4    5 ar
   9    4   32 1
  10    5    6 ar
  11    5   33 1
  12    6   34 1
  13    7    8 2
  14    8    9 1
  15    8   17 1
  16    9   10 am
  17    9   11 1
  18   10   21 2
  19   11   12 ar
  20   11   13 ar
  21   12   16 ar
  22   12   35 1
  23   13   14 ar
  24   13   36 1
  25   14   15 ar
  26   14   37 1
  27   15   16 ar
  28   15   38 1
  29   16   39 1
  30   17   18 1
  31   17   30 1
  32   17   40 1
  33   18   19 1
  34   18   41 1
  35   19   20 ar
  36   19   22 ar
  37   20   25 ar
  38   22   23 ar
  39   22   26 1
  40   23   24 ar
  41   23   28 1
  42   24   25 ar
  43   25   42 1
  44   26   27 2
  45   26   31 1
  46   27   28 1
  47   27   43 1
  48   28   44 1
  49   29   45 1
  50   29   46 1
  51   29   47 1
  52   30   48 1
  53   30   49 1
  54   30   50 1

#	End of record

