#	Name: ASD00170106
#	Creating user name:	WinNT
#	Creation time:	15. 06. 2019 18:31

#	Modifying user name:	WinNT
#	Modification time:	15. 06. 2019 18:31

#	Program:	/corina/corina34_cracker 3.40 0067  02.08.2006

@<TRIPOS>MOLECULE
ASD00170106
  43   46    0    0    0
SMALL
NO_CHARGES


@<TRIPOS>ATOM
   1 C1            -0.0341     1.3444    -0.0678 C.2     
   2 C2            -0.0073     0.0062    -0.0878 C.2     
   3 C3            -1.3329    -0.5852     0.0179 C.2     
   4 C4            -2.3272     0.3569     0.1155 C.2     
   5 S5            -1.6794     1.9324     0.0885 S.3     
   6 N6            -3.6713     0.0663     0.2261 N.pl3   
   7 Br7            1.4950     2.4508    -0.1842 Br      
   8 C8            -1.5720    -1.9829     0.0192 C.2     
   9 O9            -1.7728    -2.5673    -1.0303 O.2     
  10 C10            1.2375    -0.7874    -0.2049 C.ar    
  11 C11            2.1907    -0.7450     0.8137 C.ar    
  12 C12            3.3481    -1.4831     0.7043 C.ar    
  13 C13            3.5679    -2.2728    -0.4241 C.ar    
  14 C14            2.6158    -2.3151    -1.4425 C.ar    
  15 C15            1.4553    -1.5822    -1.3312 C.ar    
  16 C16           -1.5775    -2.7313     1.2954 C.ar    
  17 C17           -1.9196    -4.0843     1.3130 C.ar    
  18 C18           -1.9223    -4.7765     2.5063 C.ar    
  19 C19           -1.5873    -4.1322     3.6841 C.ar    
  20 C20           -1.2477    -2.7910     3.6736 C.ar    
  21 C21           -1.2350    -2.0888     2.4861 C.ar    
  22 C22            4.8145    -3.0674    -0.5414 C.ar    
  23 C23            5.0371    -3.8576    -1.6679 C.ar    
  24 C24            6.1992    -4.5946    -1.7718 C.ar    
  25 C25            7.1423    -4.5502    -0.7608 C.ar    
  26 C26            6.9266    -3.7681     0.3597 C.ar    
  27 C27            5.7708    -3.0224     0.4718 C.ar    
  28 H28           -3.9758    -0.8524     0.1610 H       
  29 H29           -4.3119     0.7805     0.3689 H       
  30 H30            2.0207    -0.1333     1.6874 H       
  31 H31            4.0860    -1.4501     1.4923 H       
  32 H32            2.7866    -2.9265    -2.3163 H       
  33 H33            0.7181    -1.6150    -2.1198 H       
  34 H34           -2.1820    -4.5881     0.3945 H       
  35 H35           -2.1869    -5.8235     2.5213 H       
  36 H36           -1.5913    -4.6786     4.6157 H       
  37 H37           -0.9878    -2.2937     4.5964 H       
  38 H38           -0.9694    -1.0420     2.4791 H       
  39 H39            4.3013    -3.8933    -2.4577 H       
  40 H40            6.3726    -5.2075    -2.6440 H       
  41 H41            8.0503    -5.1286    -0.8464 H       
  42 H42            7.6662    -3.7375     1.1461 H       
  43 H43            5.6035    -2.4119     1.3469 H       
@<TRIPOS>BOND
   1    1    2 2
   2    1    7 1
   3    1    5 1
   4    2    3 1
   5    2   10 1
   6    3    4 2
   7    3    8 1
   8    4    5 1
   9    4    6 1
  10    6   28 1
  11    6   29 1
  12    8    9 2
  13    8   16 1
  14   10   11 ar
  15   10   15 ar
  16   11   12 ar
  17   11   30 1
  18   12   13 ar
  19   12   31 1
  20   13   14 ar
  21   13   22 1
  22   14   15 ar
  23   14   32 1
  24   15   33 1
  25   16   17 ar
  26   16   21 ar
  27   17   18 ar
  28   17   34 1
  29   18   19 ar
  30   18   35 1
  31   19   20 ar
  32   19   36 1
  33   20   21 ar
  34   20   37 1
  35   21   38 1
  36   22   23 ar
  37   22   27 ar
  38   23   24 ar
  39   23   39 1
  40   24   25 ar
  41   24   40 1
  42   25   26 ar
  43   25   41 1
  44   26   27 ar
  45   26   42 1
  46   27   43 1

#	End of record

