#	Name: ASD06610079
#	Creating user name:	WinNT
#	Creation time:	15. 06. 2019 21:07

#	Modifying user name:	WinNT
#	Modification time:	15. 06. 2019 21:07

#	Program:	/corina/corina34_cracker 3.40 0067  02.08.2006

@<TRIPOS>MOLECULE
ASD06610079
 435  436    0    0    0
SMALL
NO_CHARGES


@<TRIPOS>ATOM
   1 C1            -5.2435    11.1728    12.1797 C.2     
   2 O2            -5.2454     9.9961    12.4733 O.2     
   3 N3            -2.8947    11.1159    12.7874 N.am    
   4 C4            -3.9747    11.9771    12.2993 C.3     
   5 C5            -8.5061    11.6118    10.5905 C.2     
   6 O6            -8.1529    12.6197    10.0158 O.2     
   7 N7            -6.3747    11.7598    11.7413 N.am    
   8 C8            -7.6067    10.9765    11.6193 C.3     
   9 C9            -8.3235    10.9397    12.9704 C.3     
  10 O10           -8.7474    12.2586    13.3209 O.3     
  11 C11          -11.8448    10.8718     9.1835 C.2     
  12 O12          -12.0021     9.8793     9.8626 O.2     
  13 N13           -9.7031    11.0600    10.3091 N.am    
  14 C14          -10.5775    11.6776     9.3090 C.3     
  15 C15          -14.6352    10.6873     6.8293 C.2     
  16 O16          -14.0877    11.4236     6.0362 O.2     
  17 N17          -12.8034    11.2540     8.3167 N.am    
  18 C18          -14.0353    10.4706     8.1947 C.3     
  19 C19          -15.0318    10.9172     9.2663 C.3     
  20 O20          -15.4189    12.2709     9.0224 O.3     
  21 C21          -17.6308     9.4677     5.0368 C.2     
  22 O22          -18.0095     8.7847     5.9647 O.2     
  23 N23          -15.7803    10.0629     6.4896 N.am    
  24 C24          -16.3635    10.2735     5.1623 C.3     
  25 C25          -19.8424     8.4298     2.3175 C.2     
  26 O26          -19.0789     8.8354     1.4670 O.2     
  27 N27          -18.3433     9.5061     3.8934 N.am    
  28 C28          -19.5752     8.7227     3.7714 C.3     
  29 C29          -20.7450     9.5178     4.3548 C.3     
  30 C30          -20.5365     9.7048     5.8355 C.2     
  31 C31          -20.5258    10.8812     6.4909 C.2     
  32 N32          -20.3069    10.5968     7.8118 N.pl3   
  33 C33          -20.1914     9.2555     7.9178 C.2     
  34 N34          -20.3348     8.7283     6.7326 N.2     
  35 C35          -22.6646     7.2002     0.3461 C.2     
  36 O36          -23.4242     7.2661     1.2893 O.2     
  37 N37          -20.9298     7.7171     1.9624 N.am    
  38 C38          -21.1895     7.4323     0.5490 C.3     
  39 C39          -20.4140     6.1818     0.1298 C.3     
  40 C40          -18.9346     6.4557     0.2161 C.ar    
  41 C41          -18.2522     6.2030     1.3914 C.ar    
  42 C42          -16.8952     6.4542     1.4705 C.ar    
  43 C43          -16.2205     6.9578     0.3741 C.ar    
  44 C44          -16.9027     7.2097    -0.8015 C.ar    
  45 C45          -18.2588     6.9543    -0.8819 C.ar    
  46 C46          -24.7839     5.8346    -2.3009 C.2     
  47 O47          -23.8298     5.4489    -2.9426 O.2     
  48 N48          -23.1397     6.9193    -0.8834 N.am    
  49 C49          -24.5737     6.6936    -1.0806 C.3     
  50 C50          -25.2795     8.0371    -1.2750 C.3     
  51 C51          -25.1723     8.8602     0.0103 C.3     
  52 C52          -25.8780    10.2037    -0.1840 C.3     
  53 N53          -25.7753    10.9918     1.0467 N.pl3   
  54 C54          -26.3392    12.2440     1.1101 C.2     
  55 N55          -26.9651    12.7301     0.0753 N.2     
  56 N56          -26.2428    12.9836     2.2651 N.pl3   
  57 C57          -27.6106     4.9156    -4.4289 C.2     
  58 O58          -28.3467     5.7164    -3.8925 O.2     
  59 N59          -26.0322     5.4950    -2.6791 N.am    
  60 C60          -26.2365     4.6600    -3.8653 C.3     
  61 C61          -26.1101     3.1851    -3.4787 C.3     
  62 C62          -24.6779     2.8981    -3.0235 C.3     
  63 C63          -24.5515     1.4231    -2.6368 C.3     
  64 C64          -23.1193     1.1361    -2.1816 C.3     
  65 N65          -22.9979    -0.2800    -1.8104 N.3     
  66 C66          -29.8138     3.2952    -6.8544 C.2     
  67 O67          -29.0943     2.3229    -6.9422 O.2     
  68 N68          -28.0214     4.2543    -5.5291 N.am    
  69 C69          -29.3572     4.5027    -6.0770 C.3     
  70 C70          -29.3099     5.7186    -7.0045 C.3     
  71 C71          -28.9674     6.9680    -6.1906 C.3     
  72 C72          -28.9208     8.1656    -7.1042 C.2     
  73 O73          -29.1391     8.0333    -8.2852 O.2     
  74 O74          -28.6368     9.3792    -6.6060 O.3     
  75 C75          -32.4787     2.5434    -9.2411 C.2     
  76 O76          -32.7984     3.7095    -9.3367 O.2     
  77 N77          -31.0218     3.2959    -7.4522 N.am    
  78 C78          -31.4657     2.1221    -8.2080 C.3     
  79 C79          -32.1023     1.1110    -7.2523 C.3     
  80 C80          -31.0414     0.5895    -6.2810 C.3     
  81 C81          -31.6780    -0.4216    -5.3253 C.3     
  82 N82          -30.6622    -0.9209    -4.3952 N.pl3   
  83 C83          -31.0028    -1.8463    -3.4372 C.2     
  84 N84          -30.0991    -2.2906    -2.6096 N.2     
  85 N85          -32.2967    -2.3031    -3.3520 N.pl3   
  86 C86          -35.0698     0.8792   -11.1407 C.2     
  87 O87          -34.8842    -0.1637   -10.5502 O.2     
  88 N88          -33.0294     1.6245   -10.0589 N.am    
  89 C89          -34.0909     2.0150   -10.9901 C.3     
  90 C90          -33.4781     2.3443   -12.3528 C.3     
  91 C91          -32.5726     1.1935   -12.7963 C.3     
  92 C92          -33.4248    -0.0439   -13.0851 C.3     
  93 C93          -32.6542     3.6290   -12.2445 C.3     
  94 C94          -37.7719     0.0670   -13.4650 C.2     
  95 O95          -37.5532     1.0447   -14.1484 O.2     
  96 N96          -36.1516     1.0224   -11.9317 N.am    
  97 C97          -37.0527    -0.1113   -12.1527 C.3     
  98 C98          -38.0748    -0.1795   -11.0162 C.3     
  99 C99          -37.3553    -0.4847    -9.7009 C.3     
 100 C100         -38.3620    -0.5518    -8.5815 C.2     
 101 O101         -39.5347    -0.3738    -8.8121 O.2     
 102 O102         -37.9560    -0.8094    -7.3283 O.3     
 103 C103         -40.2840    -1.8532   -15.3823 C.2     
 104 O104         -40.3539    -2.7416   -14.5597 O.2     
 105 N105         -38.6580    -0.8602   -13.8792 N.am    
 106 C106         -39.3571    -0.6869   -15.1550 C.3     
 107 C107         -42.1767    -3.2128   -18.1987 C.2     
 108 O108         -41.6473    -2.4611   -18.9896 O.2     
 109 N109         -41.0355    -1.9089   -16.4997 N.am    
 110 C110         -41.9366    -3.0426   -16.7207 C.3     
 111 C111         -43.2684    -2.7808   -16.0145 C.3     
 112 C112         -43.0426    -2.7320   -14.5020 C.3     
 113 C113         -44.3484    -2.3473   -13.8036 C.3     
 114 C114         -42.5869    -4.1071   -14.0097 C.3     
 115 C115         -44.5334    -5.0592   -20.2963 C.2     
 116 O116         -45.2124    -5.3833   -19.3451 O.2     
 117 N117         -42.9799    -4.2004   -18.6416 N.am    
 118 C118         -43.2133    -4.3658   -20.0784 C.3     
 119 C119         -42.0888    -5.2080   -20.6842 C.3     
 120 C120         -40.7658    -4.4474   -20.5740 C.3     
 121 C121         -39.6413    -5.2896   -21.1797 C.3     
 122 N122         -38.3745    -4.5613   -21.0742 N.pl3   
 123 C123         -37.2159    -5.1240   -21.5550 C.2     
 124 N124         -37.2445    -6.3055   -22.1047 N.2     
 125 N125         -36.0272    -4.4405   -21.4560 N.pl3   
 126 C126         -46.2247    -6.7016   -23.0900 C.2     
 127 O127         -45.2371    -6.6486   -23.7919 O.2     
 128 N128         -44.9595    -5.3192   -21.5482 N.am    
 129 C129         -46.2429    -5.9932   -21.7600 C.3     
 130 C130         -47.3703    -4.9589   -21.7484 C.3     
 131 C131         -47.4691    -4.3279   -20.3581 C.3     
 132 C132         -48.5965    -3.2936   -20.3465 C.3     
 133 C133         -48.6953    -2.6625   -18.9562 C.3     
 134 N134         -49.7778    -1.6695   -18.9451 N.3     
 135 C135         -48.6997    -8.2397   -25.2973 C.2     
 136 O136         -49.6287    -7.8180   -24.6416 O.2     
 137 N137         -47.3061    -7.3940   -23.4995 N.am    
 138 C138         -47.2885    -8.0827   -24.7925 C.3     
 139 C139         -46.6496    -9.4630   -24.6265 C.3     
 140 C140         -45.1797    -9.3008   -24.2342 C.3     
 141 C141         -44.5408   -10.6811   -24.0682 C.3     
 142 N142         -43.1333   -10.5257   -23.6926 N.pl3   
 143 C143         -42.3500   -11.6368   -23.4873 C.2     
 144 N144         -42.8597   -12.8283   -23.6268 N.2     
 145 N145         -41.0292   -11.4910   -23.1348 N.pl3   
 146 C146         -50.3707   -10.1774   -27.9081 C.2     
 147 O147         -49.3724   -10.8242   -28.1448 O.2     
 148 N148         -48.9294    -8.8489   -26.4774 N.am    
 149 C149         -50.3013    -9.0016   -26.9681 C.3     
 150 C150         -50.7224    -7.7308   -27.7089 C.3     
 151 C151         -50.7722    -6.5599   -26.7254 C.3     
 152 C152         -51.1933    -5.2892   -27.4663 C.3     
 153 N153         -51.2410    -4.1680   -26.5245 N.pl3   
 154 C154         -51.5972    -2.9152   -26.9647 C.2     
 155 N155         -51.8925    -2.7250   -28.2200 N.2     
 156 N156         -51.6421    -1.8630   -26.0810 N.pl3   
 157 C157         -52.7655   -11.4702   -30.3487 C.2     
 158 O158         -53.4644   -10.4821   -30.2696 O.2     
 159 N159         -51.5420   -10.5102   -28.4857 N.am    
 160 C160         -51.6094   -11.6533   -29.3995 C.3     
 161 C161         -51.8093   -12.9389   -28.5943 C.3     
 162 C162         -50.5782   -13.1905   -27.7214 C.3     
 163 C163         -50.7781   -14.4761   -26.9162 C.3     
 164 N164         -49.5993   -14.7170   -26.0804 N.pl3   
 165 C165         -49.5499   -15.8220   -25.2638 C.2     
 166 N166         -50.5518   -16.6551   -25.2332 N.2     
 167 N167         -48.4436   -16.0481   -24.4794 N.pl3   
 168 C168         -54.6070   -13.5726   -32.7049 C.2     
 169 O169         -54.0509   -14.5815   -32.3256 O.2     
 170 N170         -53.0229   -12.4044   -31.2854 N.am    
 171 C171         -54.1468   -12.2263   -32.2081 C.3     
 172 C172         -53.7015   -11.3697   -33.3950 C.3     
 173 C173         -53.3525    -9.9626   -32.9059 C.3     
 174 C174         -52.7894    -9.1434   -34.0690 C.3     
 175 C175         -54.6127    -9.2830   -32.3665 C.3     
 176 C176         -56.7695   -14.7370   -35.4243 C.2     
 177 O177         -57.2078   -13.6387   -35.6934 O.2     
 178 N178         -55.6365   -13.6555   -33.5707 N.am    
 179 C179         -56.0134   -14.9523   -34.1386 C.3     
 180 C180         -56.9005   -15.7056   -33.1453 C.3     
 181 C181         -57.3023   -17.0557   -33.7424 C.3     
 182 C182         -56.0653   -17.9479   -33.8643 C.3     
 183 C183         -58.3301   -17.7305   -32.8319 C.3     
 184 C184         -58.3294   -16.8976   -37.9266 C.2     
 185 O185         -58.0947   -17.8977   -37.2904 O.2     
 186 N186         -56.9587   -15.7651   -36.2750 N.am    
 187 C187         -57.7569   -15.5742   -37.4886 C.3     
 188 C188         -56.8690   -15.0099   -38.5995 C.3     
 189 O189         -59.0999   -16.9655   -39.0236 O.3     
 190 C190          -1.6599    11.6231    12.9726 C.2     
 191 O191          -1.4427    12.7925    12.7353 O.2     
 192 C192          16.3633    10.1576    17.8926 C.3     
 193 C193          15.2354    11.0570    17.3829 C.3     
 194 C194          13.9472    10.2404    17.2615 C.3     
 195 C195          12.8194    11.1398    16.7518 C.3     
 196 C196          11.5312    10.3232    16.6304 C.3     
 197 C197          10.4033    11.2226    16.1206 C.3     
 198 C198           9.1152    10.4060    15.9992 C.3     
 199 C199           7.9873    11.3054    15.4895 C.3     
 200 C200           6.6992    10.4888    15.3681 C.3     
 201 C201           5.5713    11.3882    14.8584 C.3     
 202 C202           4.2831    10.5716    14.7370 C.3     
 203 C203           3.1552    11.4710    14.2272 C.3     
 204 C204           1.8671    10.6544    14.1058 C.3     
 205 C205           0.7392    11.5539    13.5961 C.3     
 206 C206          -0.5489    10.7372    13.4747 C.3     
 207 H207          -3.0684    10.1807    12.9772 H       
 208 H208          -3.7058    12.3789    11.3224 H       
 209 H209          -4.1295    12.7980    12.9996 H       
 210 H210          -6.3732    12.7010    11.5065 H       
 211 H211          -7.3620     9.9603    11.3100 H       
 212 H212          -9.1923    10.2848    12.9031 H       
 213 H213          -7.6423    10.5623    13.7331 H       
 214 H214          -9.2104    12.3109    14.1682 H       
 215 H215          -9.9856    10.2538    10.7688 H       
 216 H216         -10.0668    11.7038     8.3464 H       
 217 H217         -10.8222    12.6937     9.6183 H       
 218 H218         -12.6776    12.0478     7.7735 H       
 219 H219         -13.8080     9.4130     8.3280 H       
 220 H220         -15.9126    10.2759     9.2333 H       
 221 H221         -14.5658    10.8440    10.2489 H       
 222 H222         -16.0511    12.6211     9.6648 H       
 223 H223         -16.2182     9.4740     7.1239 H       
 224 H224         -15.6536     9.9554     4.3988 H       
 225 H225         -16.5908    11.3312     5.0290 H       
 226 H226         -18.0404    10.0523     3.1513 H       
 227 H227         -19.4652     7.7853     4.3167 H       
 228 H228         -20.7998    10.4923     3.8697 H       
 229 H229         -21.6745     8.9744     4.1846 H       
 230 H230         -20.6631    11.8609     6.0574 H       
 231 H231         -20.2462    11.2388     8.5364 H       
 232 H232         -20.0139     8.7093     8.8324 H       
 233 H233         -21.5404     7.3926     2.6427 H       
 234 H234         -20.8682     8.2793    -0.0573 H       
 235 H235         -20.6699     5.3560     0.7937 H       
 236 H236         -20.6756     5.9185    -0.8950 H       
 237 H237         -18.7794     5.8095     2.2480 H       
 238 H238         -16.3623     6.2575     2.3890 H       
 239 H239         -15.1604     7.1548     0.4362 H       
 240 H240         -16.3756     7.6034    -1.6580 H       
 241 H241         -18.7911     7.1476    -1.8016 H       
 242 H242         -22.5322     6.8666    -1.6378 H       
 243 H243         -24.9859     6.1898    -0.2063 H       
 244 H244         -24.8082     8.5799    -2.0944 H       
 245 H245         -26.3299     7.8652    -1.5097 H       
 246 H246         -25.6435     8.3174     0.8297 H       
 247 H247         -24.1218     9.0321     0.2451 H       
 248 H248         -25.4067    10.7465    -1.0034 H       
 249 H249         -26.9284    10.0317    -0.4188 H       
 250 H250         -25.3095    10.6300     1.8168 H       
 251 H251         -27.3629    13.6137     0.1201 H       
 252 H252         -25.7770    12.6218     3.0352 H       
 253 H253         -26.6406    13.8671     2.3099 H       
 254 H254         -26.7953     5.8035    -2.1658 H       
 255 H255         -25.4847     4.9046    -4.6157 H       
 256 H256         -26.8013     2.9620    -2.6658 H       
 257 H257         -26.3493     2.5618    -4.3403 H       
 258 H258         -23.9867     3.1211    -3.8363 H       
 259 H259         -24.4387     3.5213    -2.1618 H       
 260 H260         -25.2427     1.2001    -1.8240 H       
 261 H261         -24.7907     0.7999    -3.4985 H       
 262 H262         -22.4281     1.3592    -2.9944 H       
 263 H263         -22.8801     1.7594    -1.3200 H       
 264 H264         -23.2767    -0.8789    -2.5731 H       
 265 H265         -22.0603    -0.4950    -1.5059 H       
 266 H266         -27.4327     3.6138    -5.9581 H       
 267 H267         -30.0544     4.6948    -5.2615 H       
 268 H268         -28.5486     5.5630    -7.7690 H       
 269 H269         -30.2814     5.8502    -7.4808 H       
 270 H270         -29.7287     7.1236    -5.4262 H       
 271 H271         -27.9958     6.8364    -5.7143 H       
 272 H272         -28.6184    10.1170    -7.2309 H       
 273 H273         -31.5972     4.0736    -7.3820 H       
 274 H274         -30.6098     1.6643    -8.7040 H       
 275 H275         -32.9020     1.5947    -6.6915 H       
 276 H276         -32.5118     0.2784    -7.8243 H       
 277 H277         -30.2417     0.1057    -6.8418 H       
 278 H278         -30.6319     1.4221    -5.7090 H       
 279 H279         -32.4777     0.0622    -4.7644 H       
 280 H280         -32.0875    -1.2542    -5.8972 H       
 281 H281         -29.7492    -0.5986    -4.4552 H       
 282 H282         -30.3394    -2.9434    -1.9337 H       
 283 H283         -32.9693    -1.9725    -3.9678 H       
 284 H284         -32.5371    -2.9560    -2.6761 H       
 285 H285         -32.7230     0.7046   -10.0309 H       
 286 H286         -34.6090     2.8924   -10.6031 H       
 287 H287         -34.2737     2.4834   -13.0848 H       
 288 H288         -32.0337     1.4823   -13.6988 H       
 289 H289         -31.8592     0.9665   -12.0041 H       
 290 H290         -34.2503     0.2289   -13.7426 H       
 291 H291         -32.8106    -0.8032   -13.5690 H       
 292 H292         -33.8208    -0.4388   -12.1495 H       
 293 H293         -31.7996     3.4584   -11.5899 H       
 294 H294         -32.3016     3.9189   -13.2343 H       
 295 H295         -33.2746     4.4248   -11.8323 H       
 296 H296         -36.3336     1.8762   -12.3547 H       
 297 H297         -36.4749    -1.0352   -12.1776 H       
 298 H298         -38.5915     0.7768   -10.9344 H       
 299 H299         -38.7989    -0.9669   -11.2255 H       
 300 H300         -36.8387    -1.4410    -9.7828 H       
 301 H301         -36.6313     0.3027    -9.4916 H       
 302 H302         -38.6383    -0.8425    -6.6438 H       
 303 H303         -38.8329    -1.6423   -13.3327 H       
 304 H304         -38.6290    -0.6384   -15.9646 H       
 305 H305         -39.9349     0.2370   -15.1300 H       
 306 H306         -40.9797    -1.1983   -17.1577 H       
 307 H307         -41.4846    -3.9496   -16.3193 H       
 308 H308         -43.6774    -1.8284   -16.3517 H       
 309 H309         -43.9689    -3.5815   -16.2516 H       
 310 H310         -42.2761    -1.9917   -14.2727 H       
 311 H311         -45.1148    -3.0877   -14.0328 H       
 312 H312         -44.1876    -2.3126   -12.7261 H       
 313 H313         -44.6731    -1.3677   -14.1543 H       
 314 H314         -41.6566    -4.3812   -14.5073 H       
 315 H315         -42.4260    -4.0724   -12.9322 H       
 316 H316         -43.3533    -4.8475   -14.2390 H       
 317 H317         -43.4033    -4.8016   -18.0091 H       
 318 H318         -43.2333    -3.3873   -20.5583 H       
 319 H319         -42.0110    -6.1521   -20.1450 H       
 320 H320         -42.3078    -5.4059   -21.7334 H       
 321 H321         -40.8435    -3.5033   -21.1132 H       
 322 H322         -40.5468    -4.2495   -19.5247 H       
 323 H323         -39.5636    -6.2337   -20.6405 H       
 324 H324         -39.8603    -5.4874   -22.2290 H       
 325 H325         -38.3533    -3.6820   -20.6652 H       
 326 H326         -36.4271    -6.7025   -22.4440 H       
 327 H327         -36.0059    -3.5612   -21.0469 H       
 328 H328         -35.2097    -4.8375   -21.7953 H       
 329 H329         -44.4165    -5.0600   -22.3090 H       
 330 H330         -46.4077    -6.7193   -20.9639 H       
 331 H331         -47.1597    -4.1837   -22.4851 H       
 332 H332         -48.3135    -5.4469   -21.9938 H       
 333 H333         -47.6797    -5.1031   -19.6214 H       
 334 H334         -46.5258    -3.8399   -20.1127 H       
 335 H335         -48.3859    -2.5184   -21.0832 H       
 336 H336         -49.5398    -3.7815   -20.5919 H       
 337 H337         -48.9059    -3.4377   -18.2195 H       
 338 H338         -47.7521    -2.1746   -18.7108 H       
 339 H339         -50.6517    -2.0839   -19.2323 H       
 340 H340         -49.8634    -1.2381   -18.0370 H       
 341 H341         -48.0960    -7.4364   -22.9382 H       
 342 H342         -46.7097    -7.4981   -25.5076 H       
 343 H343         -47.1749   -10.0151   -23.8471 H       
 344 H344         -46.7165   -10.0097   -25.5670 H       
 345 H345         -44.6544    -8.7486   -25.0136 H       
 346 H346         -45.1128    -8.7540   -23.2936 H       
 347 H347         -45.0661   -11.2332   -23.2889 H       
 348 H348         -44.6077   -11.2278   -25.0088 H       
 349 H349         -42.7541    -9.6390   -23.5888 H       
 350 H350         -42.3070   -13.6122   -23.4819 H       
 351 H351         -40.6499   -10.6043   -23.0309 H       
 352 H352         -40.4765   -12.2749   -22.9899 H       
 353 H353         -48.1864    -9.1862   -27.0018 H       
 354 H354         -50.9720    -9.1700   -26.1255 H       
 355 H355         -50.0008    -7.5134   -28.4964 H       
 356 H356         -51.7084    -7.8772   -28.1499 H       
 357 H357         -51.4938    -6.7773   -25.9379 H       
 358 H358         -49.7862    -6.4135   -26.2844 H       
 359 H359         -50.4717    -5.0717   -28.2537 H       
 360 H360         -52.1793    -5.4355   -27.9073 H       
 361 H361         -51.0213    -4.3095   -25.5904 H       
 362 H362         -52.1438    -1.8411   -28.5306 H       
 363 H363         -51.4224    -2.0045   -25.1468 H       
 364 H364         -51.8934    -0.9791   -26.3916 H       
 365 H365         -52.3404    -9.9929   -28.2964 H       
 366 H366         -50.6809   -11.7204   -29.9665 H       
 367 H367         -52.6898   -12.8370   -27.9600 H       
 368 H368         -51.9482   -13.7772   -29.2769 H       
 369 H369         -49.6977   -13.2923   -28.3558 H       
 370 H370         -50.4393   -12.3522   -27.0388 H       
 371 H371         -51.6586   -14.3743   -26.2819 H       
 372 H372         -50.9170   -15.3144   -27.5988 H       
 373 H373         -48.8537   -14.0970   -26.1032 H       
 374 H374         -50.5170   -17.4347   -24.6571 H       
 375 H375         -47.6980   -15.4281   -24.5022 H       
 376 H376         -48.4088   -16.8277   -23.9033 H       
 377 H377         -52.4639   -13.1946   -31.3487 H       
 378 H378         -54.9674   -11.7304   -31.6897 H       
 379 H379         -52.8247   -11.8206   -33.8599 H       
 380 H380         -54.5096   -11.3109   -34.1241 H       
 381 H381         -52.6072   -10.0279   -32.1132 H       
 382 H382         -53.5346    -9.0781   -34.8618 H       
 383 H383         -52.5408    -8.1410   -33.7206 H       
 384 H384         -51.8916    -9.6276   -34.4533 H       
 385 H385         -55.3579    -9.2177   -33.1592 H       
 386 H386         -55.0138    -9.8666   -31.5379 H       
 387 H387         -54.3640    -8.2806   -32.0181 H       
 388 H388         -56.1279   -12.8566   -33.8179 H       
 389 H389         -55.1151   -15.5362   -34.3388 H       
 390 H390         -56.3511   -15.8675   -32.2179 H       
 391 H391         -57.7955   -15.1185   -32.9396 H       
 392 H392         -57.7375   -16.9012   -34.7298 H       
 393 H393         -56.3383   -18.8825   -34.3542 H       
 394 H394         -55.3052   -17.4365   -34.4549 H       
 395 H395         -55.6712   -18.1603   -32.8704 H       
 396 H396         -59.2114   -17.0949   -32.7451 H       
 397 H397         -58.6164   -18.6924   -33.2573 H       
 398 H398         -57.8949   -17.8850   -31.8446 H       
 399 H399         -56.5664   -16.6314   -36.0838 H       
 400 H400         -58.5692   -14.8770   -37.2833 H       
 401 H401         -56.0566   -15.7071   -38.8048 H       
 402 H402         -57.4628   -14.8679   -39.5024 H       
 403 H403         -56.4549   -14.0527   -38.2827 H       
 404 H404         -59.4443   -17.8362   -39.2650 H       
 405 H405          17.2810    10.7394    17.9791 H       
 406 H406          16.0943     9.7559    18.8696 H       
 407 H407          16.5181     9.3368    17.1923 H       
 408 H408          15.0806    11.8778    18.0832 H       
 409 H409          15.5044    11.4587    16.4060 H       
 410 H410          14.1020     9.4196    16.5612 H       
 411 H411          13.6783     9.8387    18.2384 H       
 412 H412          12.6646    11.9606    17.4521 H       
 413 H413          13.0883    11.5415    15.7748 H       
 414 H414          11.6860     9.5024    15.9301 H       
 415 H415          11.2622     9.9215    17.6073 H       
 416 H416          10.2485    12.0434    16.8209 H       
 417 H417          10.6723    11.6243    15.1437 H       
 418 H418           9.2700     9.5852    15.2990 H       
 419 H419           8.8462    10.0043    16.9762 H       
 420 H420           7.8325    12.1262    16.1898 H       
 421 H421           8.2563    11.7071    14.5126 H       
 422 H422           6.8540     9.6680    14.6678 H       
 423 H423           6.4302    10.0871    16.3450 H       
 424 H424           5.4165    12.2091    15.5587 H       
 425 H425           5.8402    11.7899    13.8815 H       
 426 H426           4.4379     9.7508    14.0367 H       
 427 H427           4.0142    10.1699    15.7139 H       
 428 H428           3.0004    12.2919    14.9275 H       
 429 H429           3.4242    11.8728    13.2503 H       
 430 H430           2.0219     9.8336    13.4056 H       
 431 H431           1.5981    10.2527    15.0828 H       
 432 H432           0.5844    12.3747    14.2964 H       
 433 H433           1.0082    11.9556    12.6192 H       
 434 H434          -0.8179    10.3355    14.4516 H       
 435 H435          -0.3941     9.9164    12.7744 H       
@<TRIPOS>BOND
   1    1    2 2
   2    1    4 1
   3    1    7 am
   4    3    4 1
   5    3  190 am
   6    3  207 1
   7    4  208 1
   8    4  209 1
   9    5    6 2
  10    5    8 1
  11    5   13 am
  12    7    8 1
  13    7  210 1
  14    8    9 1
  15    8  211 1
  16    9   10 1
  17    9  212 1
  18    9  213 1
  19   10  214 1
  20   11   12 2
  21   11   14 1
  22   11   17 am
  23   13   14 1
  24   13  215 1
  25   14  216 1
  26   14  217 1
  27   15   16 2
  28   15   18 1
  29   15   23 am
  30   17   18 1
  31   17  218 1
  32   18   19 1
  33   18  219 1
  34   19   20 1
  35   19  220 1
  36   19  221 1
  37   20  222 1
  38   21   22 2
  39   21   24 1
  40   21   27 am
  41   23   24 1
  42   23  223 1
  43   24  224 1
  44   24  225 1
  45   25   26 2
  46   25   28 1
  47   25   37 am
  48   27   28 1
  49   27  226 1
  50   28   29 1
  51   28  227 1
  52   29   30 1
  53   29  228 1
  54   29  229 1
  55   30   31 2
  56   30   34 1
  57   31   32 1
  58   31  230 1
  59   32   33 1
  60   32  231 1
  61   33   34 2
  62   33  232 1
  63   35   36 2
  64   35   38 1
  65   35   48 am
  66   37   38 1
  67   37  233 1
  68   38   39 1
  69   38  234 1
  70   39   40 1
  71   39  235 1
  72   39  236 1
  73   40   41 ar
  74   40   45 ar
  75   41   42 ar
  76   41  237 1
  77   42   43 ar
  78   42  238 1
  79   43   44 ar
  80   43  239 1
  81   44   45 ar
  82   44  240 1
  83   45  241 1
  84   46   47 2
  85   46   49 1
  86   46   59 am
  87   48   49 1
  88   48  242 1
  89   49   50 1
  90   49  243 1
  91   50   51 1
  92   50  244 1
  93   50  245 1
  94   51   52 1
  95   51  246 1
  96   51  247 1
  97   52   53 1
  98   52  248 1
  99   52  249 1
 100   53   54 1
 101   53  250 1
 102   54   55 2
 103   54   56 1
 104   55  251 1
 105   56  252 1
 106   56  253 1
 107   57   58 2
 108   57   60 1
 109   57   68 am
 110   59   60 1
 111   59  254 1
 112   60   61 1
 113   60  255 1
 114   61   62 1
 115   61  256 1
 116   61  257 1
 117   62   63 1
 118   62  258 1
 119   62  259 1
 120   63   64 1
 121   63  260 1
 122   63  261 1
 123   64   65 1
 124   64  262 1
 125   64  263 1
 126   65  264 1
 127   65  265 1
 128   66   67 2
 129   66   69 1
 130   66   77 am
 131   68   69 1
 132   68  266 1
 133   69   70 1
 134   69  267 1
 135   70   71 1
 136   70  268 1
 137   70  269 1
 138   71   72 1
 139   71  270 1
 140   71  271 1
 141   72   73 2
 142   72   74 1
 143   74  272 1
 144   75   76 2
 145   75   78 1
 146   75   88 am
 147   77   78 1
 148   77  273 1
 149   78   79 1
 150   78  274 1
 151   79   80 1
 152   79  275 1
 153   79  276 1
 154   80   81 1
 155   80  277 1
 156   80  278 1
 157   81   82 1
 158   81  279 1
 159   81  280 1
 160   82   83 1
 161   82  281 1
 162   83   84 2
 163   83   85 1
 164   84  282 1
 165   85  283 1
 166   85  284 1
 167   86   87 2
 168   86   89 1
 169   86   96 am
 170   88   89 1
 171   88  285 1
 172   89   90 1
 173   89  286 1
 174   90   91 1
 175   90   93 1
 176   90  287 1
 177   91   92 1
 178   91  288 1
 179   91  289 1
 180   92  290 1
 181   92  291 1
 182   92  292 1
 183   93  293 1
 184   93  294 1
 185   93  295 1
 186   94   95 2
 187   94   97 1
 188   94  105 am
 189   96   97 1
 190   96  296 1
 191   97   98 1
 192   97  297 1
 193   98   99 1
 194   98  298 1
 195   98  299 1
 196   99  100 1
 197   99  300 1
 198   99  301 1
 199  100  101 2
 200  100  102 1
 201  102  302 1
 202  103  104 2
 203  103  106 1
 204  103  109 am
 205  105  106 1
 206  105  303 1
 207  106  304 1
 208  106  305 1
 209  107  108 2
 210  107  110 1
 211  107  117 am
 212  109  110 1
 213  109  306 1
 214  110  111 1
 215  110  307 1
 216  111  112 1
 217  111  308 1
 218  111  309 1
 219  112  113 1
 220  112  114 1
 221  112  310 1
 222  113  311 1
 223  113  312 1
 224  113  313 1
 225  114  314 1
 226  114  315 1
 227  114  316 1
 228  115  116 2
 229  115  118 1
 230  115  128 am
 231  117  118 1
 232  117  317 1
 233  118  119 1
 234  118  318 1
 235  119  120 1
 236  119  319 1
 237  119  320 1
 238  120  121 1
 239  120  321 1
 240  120  322 1
 241  121  122 1
 242  121  323 1
 243  121  324 1
 244  122  123 1
 245  122  325 1
 246  123  124 2
 247  123  125 1
 248  124  326 1
 249  125  327 1
 250  125  328 1
 251  126  127 2
 252  126  129 1
 253  126  137 am
 254  128  129 1
 255  128  329 1
 256  129  130 1
 257  129  330 1
 258  130  131 1
 259  130  331 1
 260  130  332 1
 261  131  132 1
 262  131  333 1
 263  131  334 1
 264  132  133 1
 265  132  335 1
 266  132  336 1
 267  133  134 1
 268  133  337 1
 269  133  338 1
 270  134  339 1
 271  134  340 1
 272  135  136 2
 273  135  138 1
 274  135  148 am
 275  137  138 1
 276  137  341 1
 277  138  139 1
 278  138  342 1
 279  139  140 1
 280  139  343 1
 281  139  344 1
 282  140  141 1
 283  140  345 1
 284  140  346 1
 285  141  142 1
 286  141  347 1
 287  141  348 1
 288  142  143 1
 289  142  349 1
 290  143  144 2
 291  143  145 1
 292  144  350 1
 293  145  351 1
 294  145  352 1
 295  146  147 2
 296  146  149 1
 297  146  159 am
 298  148  149 1
 299  148  353 1
 300  149  150 1
 301  149  354 1
 302  150  151 1
 303  150  355 1
 304  150  356 1
 305  151  152 1
 306  151  357 1
 307  151  358 1
 308  152  153 1
 309  152  359 1
 310  152  360 1
 311  153  154 1
 312  153  361 1
 313  154  155 2
 314  154  156 1
 315  155  362 1
 316  156  363 1
 317  156  364 1
 318  157  158 2
 319  157  160 1
 320  157  170 am
 321  159  160 1
 322  159  365 1
 323  160  161 1
 324  160  366 1
 325  161  162 1
 326  161  367 1
 327  161  368 1
 328  162  163 1
 329  162  369 1
 330  162  370 1
 331  163  164 1
 332  163  371 1
 333  163  372 1
 334  164  165 1
 335  164  373 1
 336  165  166 2
 337  165  167 1
 338  166  374 1
 339  167  375 1
 340  167  376 1
 341  168  169 2
 342  168  171 1
 343  168  178 am
 344  170  171 1
 345  170  377 1
 346  171  172 1
 347  171  378 1
 348  172  173 1
 349  172  379 1
 350  172  380 1
 351  173  174 1
 352  173  175 1
 353  173  381 1
 354  174  382 1
 355  174  383 1
 356  174  384 1
 357  175  385 1
 358  175  386 1
 359  175  387 1
 360  176  177 2
 361  176  179 1
 362  176  186 am
 363  178  179 1
 364  178  388 1
 365  179  180 1
 366  179  389 1
 367  180  181 1
 368  180  390 1
 369  180  391 1
 370  181  182 1
 371  181  183 1
 372  181  392 1
 373  182  393 1
 374  182  394 1
 375  182  395 1
 376  183  396 1
 377  183  397 1
 378  183  398 1
 379  184  185 2
 380  184  187 1
 381  184  189 1
 382  186  187 1
 383  186  399 1
 384  187  188 1
 385  187  400 1
 386  188  401 1
 387  188  402 1
 388  188  403 1
 389  189  404 1
 390  190  191 2
 391  190  206 1
 392  192  193 1
 393  192  405 1
 394  192  406 1
 395  192  407 1
 396  193  194 1
 397  193  408 1
 398  193  409 1
 399  194  195 1
 400  194  410 1
 401  194  411 1
 402  195  196 1
 403  195  412 1
 404  195  413 1
 405  196  197 1
 406  196  414 1
 407  196  415 1
 408  197  198 1
 409  197  416 1
 410  197  417 1
 411  198  199 1
 412  198  418 1
 413  198  419 1
 414  199  200 1
 415  199  420 1
 416  199  421 1
 417  200  201 1
 418  200  422 1
 419  200  423 1
 420  201  202 1
 421  201  424 1
 422  201  425 1
 423  202  203 1
 424  202  426 1
 425  202  427 1
 426  203  204 1
 427  203  428 1
 428  203  429 1
 429  204  205 1
 430  204  430 1
 431  204  431 1
 432  205  206 1
 433  205  432 1
 434  205  433 1
 435  206  434 1
 436  206  435 1

#	End of record

