#	Name: ASD01914282
#	Creating user name:	WinNT
#	Creation time:	15. 06. 2019 20:03

#	Modifying user name:	WinNT
#	Modification time:	15. 06. 2019 20:03

#	Program:	/corina/corina34_cracker 3.40 0067  02.08.2006

@<TRIPOS>MOLECULE
ASD01914282
  31   33    0    0    0
SMALL
NO_CHARGES


@<TRIPOS>ATOM
   1 N1            -0.0154     1.2833     0.0091 N.2     
   2 N2             0.0021    -0.0041     0.0020 N.pl3   
   3 N3             1.1958    -0.4863    -0.0120 N.2     
   4 C4             2.0615     0.5145    -0.0149 C.ar    
   5 C5             1.2311     1.7280    -0.0004 C.ar    
   6 C6             1.8650     2.9831     0.0003 C.ar    
   7 C7             3.2216     3.0478    -0.0123 C.ar    
   8 C8             4.0117     1.8953    -0.0265 C.ar    
   9 C9             3.4606     0.6514    -0.0279 C.ar    
  10 C10           -1.2068    -0.8315     0.0091 C.3     
  11 C11           -1.6415    -1.1118    -1.4308 C.3     
  12 C12           -2.8562    -1.9433    -1.4237 C.1     
  13 C13           -3.8249    -2.6064    -1.4180 C.1     
  14 C14           -5.0066    -3.4152    -1.4111 C.ar    
  15 C15           -5.5895    -3.7997    -2.6191 C.ar    
  16 C16           -6.7309    -4.5812    -2.5957 C.ar    
  17 C17           -7.2540    -4.9539    -1.3651 C.ar    
  18 C18           -6.6255    -4.5375    -0.2061 C.ar    
  19 N19           -5.5363    -3.7981    -0.2550 N.ar    
  20 F20            5.3569     2.0195    -0.0396 F       
  21 H21            1.2773     3.8892     0.0104 H       
  22 H22            3.7021     4.0151    -0.0117 H       
  23 H23            4.0930    -0.2240    -0.0388 H       
  24 H24           -0.9991    -1.7739     0.5159 H       
  25 H25           -2.0044    -0.3051     0.5334 H       
  26 H26           -1.8492    -0.1695    -1.9376 H       
  27 H27           -0.8439    -1.6383    -1.9551 H       
  28 H28           -5.1560    -3.4915    -3.5591 H       
  29 H29           -7.2047    -4.8941    -3.5144 H       
  30 H30           -8.1442    -5.5633    -1.3134 H       
  31 H31           -7.0307    -4.8258     0.7526 H       
@<TRIPOS>BOND
   1    1    2 1
   2    1    5 2
   3    2    3 1
   4    2   10 1
   5    3    4 2
   6    4    5 ar
   7    4    9 ar
   8    5    6 ar
   9    6    7 ar
  10    6   21 1
  11    7    8 ar
  12    7   22 1
  13    8    9 ar
  14    8   20 1
  15    9   23 1
  16   10   11 1
  17   10   24 1
  18   10   25 1
  19   11   12 1
  20   11   26 1
  21   11   27 1
  22   12   13 3
  23   13   14 1
  24   14   15 ar
  25   14   19 ar
  26   15   16 ar
  27   15   28 1
  28   16   17 ar
  29   16   29 1
  30   17   18 ar
  31   17   30 1
  32   18   19 ar
  33   18   31 1

#	End of record

