#	Name: ASD02038670
#	Creating user name:	WinNT
#	Creation time:	15. 06. 2019 20:17

#	Modifying user name:	WinNT
#	Modification time:	15. 06. 2019 20:17

#	Program:	/corina/corina34_cracker 3.40 0067  02.08.2006

@<TRIPOS>MOLECULE
ASD02038670
  39   40    0    0    0
SMALL
NO_CHARGES


@<TRIPOS>ATOM
   1 C1             0.4293     1.4293     0.0209 C.ar    
   2 C2             0.3335     0.0513     0.0027 C.ar    
   3 C3             1.4788    -0.7229     0.0280 C.ar    
   4 C4             1.3713    -2.2259     0.0075 C.3     
   5 C5             1.3779    -2.7181    -1.4411 C.3     
   6 C6             1.2705    -4.2211    -1.4615 C.2     
   7 N7             1.2572    -4.8798    -2.6373 N.am    
   8 N8             1.1573    -6.2771    -2.6563 N.am    
   9 C9             1.1440    -6.9359    -3.8320 C.2     
  10 C10            0.6080    -6.5070    -7.3102 C.ar    
  11 C11            0.7104    -7.1868    -8.5079 C.ar    
  12 C12            1.5306    -8.2969    -8.6073 C.ar    
  13 C13            2.2505    -8.7293    -7.5062 C.ar    
  14 C14            2.1516    -8.0518    -6.3053 C.ar    
  15 C15            1.3291    -6.9379    -6.2041 C.ar    
  16 C16            1.6760     2.0363     0.0645 C.ar    
  17 C17            2.8237     1.2572     0.0898 C.ar    
  18 C18            2.7225    -0.1204     0.0714 C.ar    
  19 O19            1.7730     3.3917     0.0820 O.3     
  20 N20            1.2268    -6.2504    -4.9895 N.am    
  21 S21            1.0219    -8.6434    -3.8552 S.2     
  22 Cl22           1.6569    -9.1490   -10.1144 Cl      
  23 O23            1.1960    -4.8379    -0.4200 O.2     
  24 Cl24           3.2781   -10.1227    -7.6342 Cl      
  25 H25           -0.4655     2.0336    -0.0033 H       
  26 H26           -0.6369    -0.4217    -0.0309 H       
  27 H27            2.2174    -2.6580     0.5419 H       
  28 H28            0.4428    -2.5304     0.4905 H       
  29 H29            0.5318    -2.2860    -1.9755 H       
  30 H30            2.3064    -2.4136    -1.9241 H       
  31 H31            1.3167    -4.3865    -3.4703 H       
  32 H32            1.0977    -6.7705    -1.8232 H       
  33 H33           -0.0290    -5.6381    -7.2348 H       
  34 H34            0.1494    -6.8519    -9.3679 H       
  35 H35            2.7125    -8.3895    -5.4463 H       
  36 H36            3.7954     1.7273     0.1234 H       
  37 H37            3.6156    -0.7273     0.0911 H       
  38 H38            1.7747     3.7744     0.9701 H       
  39 H39            1.2154    -5.2805    -4.9806 H       
@<TRIPOS>BOND
   1    1    2 ar
   2    1   16 ar
   3    1   25 1
   4    2    3 ar
   5    2   26 1
   6    3    4 1
   7    3   18 ar
   8    4    5 1
   9    4   27 1
  10    4   28 1
  11    5    6 1
  12    5   29 1
  13    5   30 1
  14    6    7 am
  15    6   23 2
  16    7    8 1
  17    7   31 1
  18    8    9 am
  19    8   32 1
  20    9   20 am
  21    9   21 2
  22   10   11 ar
  23   10   15 ar
  24   10   33 1
  25   11   12 ar
  26   11   34 1
  27   12   13 ar
  28   12   22 1
  29   13   14 ar
  30   13   24 1
  31   14   15 ar
  32   14   35 1
  33   15   20 1
  34   16   17 ar
  35   16   19 1
  36   17   18 ar
  37   17   36 1
  38   18   37 1
  39   19   38 1
  40   20   39 1

#	End of record

