#	Name: ASD01913226
#	Creating user name:	WinNT
#	Creation time:	15. 06. 2019 20:01

#	Modifying user name:	WinNT
#	Modification time:	15. 06. 2019 20:01

#	Program:	/corina/corina34_cracker 3.40 0067  02.08.2006

@<TRIPOS>MOLECULE
ASD01913226
  44   47    0    0    0
SMALL
NO_CHARGES


@<TRIPOS>ATOM
   1 C1             0.7301     1.1799    -1.0048 C.3     
   2 N2             0.3534    -0.1342    -0.4727 N.am    
   3 C3             1.3090    -0.7960     0.4310 C.3     
   4 C4             2.5769    -1.0978    -0.3664 C.3     
   5 C5             3.0150     0.1088    -1.1539 C.ar    
   6 C6             4.3366     0.1504    -1.5890 C.ar    
   7 C7             4.8002     1.2247    -2.3231 C.ar    
   8 C8             3.9457     2.2670    -2.6299 C.ar    
   9 C9             2.6364     2.2288    -2.1968 C.ar    
  10 C10            2.1692     1.1520    -1.4551 C.ar    
  11 F11            5.1727    -0.8680    -1.2904 F       
  12 C12           -0.8200    -0.7121    -0.7976 C.2     
  13 O13           -1.0611    -1.8458    -0.4314 O.2     
  14 C14           -1.8138     0.0327    -1.5992 C.ar    
  15 C15           -2.6095    -0.6399    -2.5244 C.ar    
  16 C16           -3.5449     0.0699    -3.2763 C.ar    
  17 C17           -3.6779     1.4519    -3.0965 C.ar    
  18 C18           -2.8842     2.1107    -2.1770 C.ar    
  19 C19           -1.9608     1.4113    -1.4262 C.ar    
  20 C20           -4.3668    -0.6126    -4.2299 C.1     
  21 C21           -5.0406    -1.1722    -5.0116 C.1     
  22 C22           -5.8624    -1.8547    -5.9652 C.ar    
  23 C23           -6.7977    -1.1365    -6.7151 C.ar    
  24 C24           -7.5832    -1.8106    -7.6320 C.ar    
  25 C25           -7.4111    -3.1814    -7.7724 C.ar    
  26 C26           -6.4668    -3.8306    -6.9983 C.ar    
  27 N27           -5.7264    -3.1664    -6.1348 N.ar    
  28 Cl28          -4.8413     2.3395    -4.0306 Cl      
  29 H29            0.0896     1.4253    -1.8520 H       
  30 H30            0.6077     1.9345    -0.2278 H       
  31 H31            1.5462    -0.1354     1.2649 H       
  32 H32            0.8793    -1.7249     0.8061 H       
  33 H33            3.3726    -1.3856     0.3208 H       
  34 H34            2.3813    -1.9220    -1.0524 H       
  35 H35            5.8273     1.2505    -2.6560 H       
  36 H36            4.3017     3.1081    -3.2062 H       
  37 H37            1.9692     3.0436    -2.4363 H       
  38 H38           -2.5019    -1.7061    -2.6587 H       
  39 H39           -2.9897     3.1770    -2.0421 H       
  40 H40           -1.3469     1.9320    -0.7062 H       
  41 H41           -6.9058    -0.0704    -6.5802 H       
  42 H42           -8.3148    -1.2827    -8.2257 H       
  43 H43           -8.0098    -3.7358    -8.4799 H       
  44 H44           -6.3319    -4.8967    -7.1060 H       
@<TRIPOS>BOND
   1    1    2 1
   2    1   10 1
   3    1   29 1
   4    1   30 1
   5    2    3 1
   6    2   12 am
   7    3    4 1
   8    3   31 1
   9    3   32 1
  10    4    5 1
  11    4   33 1
  12    4   34 1
  13    5    6 ar
  14    5   10 ar
  15    6    7 ar
  16    6   11 1
  17    7    8 ar
  18    7   35 1
  19    8    9 ar
  20    8   36 1
  21    9   10 ar
  22    9   37 1
  23   12   13 2
  24   12   14 1
  25   14   15 ar
  26   14   19 ar
  27   15   16 ar
  28   15   38 1
  29   16   17 ar
  30   16   20 1
  31   17   18 ar
  32   17   28 1
  33   18   19 ar
  34   18   39 1
  35   19   40 1
  36   20   21 3
  37   21   22 1
  38   22   23 ar
  39   22   27 ar
  40   23   24 ar
  41   23   41 1
  42   24   25 ar
  43   24   42 1
  44   25   26 ar
  45   25   43 1
  46   26   27 ar
  47   26   44 1

#	End of record

