#	Name: ASD09116190
#	Creating user name:	WinNT
#	Creation time:	15. 06. 2019 21:21

#	Modifying user name:	WinNT
#	Modification time:	15. 06. 2019 21:21

#	Program:	/corina/corina34_cracker 3.40 0067  02.08.2006

@<TRIPOS>MOLECULE
ASD09116190
  73   80    0    0    0
SMALL
NO_CHARGES


@<TRIPOS>ATOM
   1 N1            -0.0613     1.6026    -0.5383 N.2     
   2 C2            -0.0898     0.2763    -1.1800 C.3     
   3 C3             1.1888     1.9781    -0.5232 C.2     
   4 N4             2.0151     1.0676    -1.0773 N.2     
   5 C5             1.3683     0.0141    -1.5032 C.2     
   6 N6             1.6191     3.1791     0.0037 N.pl3   
   7 C7             2.9897     3.4575     0.0848 C.ar    
   8 C8             3.4394     4.7664    -0.0217 C.ar    
   9 C9             3.8978     2.4243     0.2775 C.ar    
  10 C10            5.2498     2.6992     0.3575 C.ar    
  11 C11            5.6999     4.0105     0.2450 C.ar    
  12 C12            4.7909     5.0420     0.0577 C.ar    
  13 N13            1.8927    -1.0850    -2.1090 N.pl3   
  14 C14           -0.6184    -0.7643    -0.2267 C.ar    
  15 C15           -1.5270    -1.7076    -0.6485 C.ar    
  16 N16           -0.2137    -0.7945     1.0369 N.ar    
  17 C17           -0.6735    -1.7027     1.8741 C.ar    
  18 N18           -1.5507    -2.6182     1.5022 N.ar    
  19 C19           -1.9905    -2.6503     0.2635 C.ar    
  20 N20            7.0703     4.2903     0.3264 N.3     
  21 C21            7.5705     4.8458    -0.9388 C.3     
  22 C22           -2.9783    -3.5516    -0.4763 C.3     
  23 C23           -2.0862    -4.3831    -1.4521 C.3     
  24 C24           -1.5648    -3.3380    -2.4675 C.3     
  25 C25           -2.2041    -1.9913    -1.9872 C.3     
  26 C26           -3.5978    -2.5119    -1.4819 C.3     
  27 F27            6.1337     1.6949     0.5454 F       
  28 C28            7.3569     5.1975     1.4464 C.3     
  29 C29            8.8684     5.4145     1.5498 C.3     
  30 N30            9.3686     5.9700     0.2845 N.3     
  31 C31            9.0820     5.0628    -0.8355 C.3     
  32 C32           10.8055     6.2634     0.3699 C.3     
  33 C33           11.3478     6.7323    -1.0148 C.3     
  34 C34           10.3342     7.8208    -1.4827 C.3     
  35 C35           10.5843     9.0192    -0.5389 C.3     
  36 C36           11.7255     8.5419     0.4104 C.3     
  37 C37           11.0556     7.4618     1.3137 C.3     
  38 C38           12.5526     7.6320    -0.5650 C.3     
  39 H39           -0.6893     0.3023    -2.0899 H       
  40 H40            0.9725     3.8304     0.3177 H       
  41 H41            2.7324     5.5698    -0.1671 H       
  42 H42            3.5474     1.4065     0.3651 H       
  43 H43            5.1403     6.0602    -0.0297 H       
  44 H44            2.8482    -1.1428    -2.2661 H       
  45 H45            1.3112    -1.8111    -2.3840 H       
  46 H46           -0.3223    -1.6986     2.8954 H       
  47 H47            7.3576     4.1504    -1.7507 H       
  48 H48            7.0791     5.7983    -1.1372 H       
  49 H49           -3.6711    -4.1192     0.1449 H       
  50 H50           -1.2558    -4.8406    -0.9144 H       
  51 H51           -2.6804    -5.1440    -1.9582 H       
  52 H52           -0.4770    -3.2801    -2.4315 H       
  53 H53           -1.9022    -3.5825    -3.4747 H       
  54 H54           -2.2061    -1.1744    -2.7089 H       
  55 H55           -4.1723    -2.9935    -2.2731 H       
  56 H56           -4.1713    -1.7360    -0.9746 H       
  57 H57            6.8631     6.1541     1.2751 H       
  58 H58            6.9883     4.7585     2.3735 H       
  59 H59            9.0813     6.1099     2.3617 H       
  60 H60            9.3598     4.4619     1.7482 H       
  61 H61            9.5758     4.1062    -0.6642 H       
  62 H62            9.4506     5.5018    -1.7626 H       
  63 H63           11.3520     5.3855     0.7146 H       
  64 H64           11.5645     5.9423    -1.7339 H       
  65 H65           10.5310     8.1039    -2.5167 H       
  66 H66            9.3116     7.4592    -1.3749 H       
  67 H67           10.9041     9.8915    -1.1089 H       
  68 H68            9.6847     9.2468     0.0329 H       
  69 H69           12.2711     9.3280     0.9324 H       
  70 H70           10.1124     7.8333     1.7144 H       
  71 H71           11.7264     7.1743     2.1233 H       
  72 H72           13.3170     7.0590    -0.0400 H       
  73 H73           12.9720     8.1989    -1.3961 H       
@<TRIPOS>BOND
   1    1    2 1
   2    1    3 2
   3    2   14 1
   4    2    5 1
   5    2   39 1
   6    3    4 1
   7    3    6 1
   8    4    5 2
   9    5   13 1
  10    6    7 1
  11    6   40 1
  12    7    8 ar
  13    7    9 ar
  14    8   12 ar
  15    8   41 1
  16    9   10 ar
  17    9   42 1
  18   10   11 ar
  19   10   27 1
  20   11   12 ar
  21   11   20 1
  22   12   43 1
  23   13   44 1
  24   13   45 1
  25   14   15 ar
  26   14   16 ar
  27   15   19 ar
  28   15   25 1
  29   16   17 ar
  30   17   18 ar
  31   17   46 1
  32   18   19 ar
  33   19   22 1
  34   20   28 1
  35   20   21 1
  36   21   31 1
  37   21   47 1
  38   21   48 1
  39   22   23 1
  40   22   26 1
  41   22   49 1
  42   23   24 1
  43   23   50 1
  44   23   51 1
  45   24   25 1
  46   24   52 1
  47   24   53 1
  48   25   26 1
  49   25   54 1
  50   26   55 1
  51   26   56 1
  52   28   29 1
  53   28   57 1
  54   28   58 1
  55   29   30 1
  56   29   59 1
  57   29   60 1
  58   30   31 1
  59   30   32 1
  60   31   61 1
  61   31   62 1
  62   32   33 1
  63   32   37 1
  64   32   63 1
  65   33   34 1
  66   33   38 1
  67   33   64 1
  68   34   35 1
  69   34   65 1
  70   34   66 1
  71   35   36 1
  72   35   67 1
  73   35   68 1
  74   36   37 1
  75   36   38 1
  76   36   69 1
  77   37   70 1
  78   37   71 1
  79   38   72 1
  80   38   73 1

#	End of record

