#	Name: ASD04530007
#	Creating user name:	WinNT
#	Creation time:	15. 06. 2019 20:49

#	Modifying user name:	WinNT
#	Modification time:	15. 06. 2019 20:49

#	Program:	/corina/corina34_cracker 3.40 0067  02.08.2006

@<TRIPOS>MOLECULE
ASD04530007
  24   25    0    0    0
SMALL
NO_CHARGES


@<TRIPOS>ATOM
   1 C1            -0.0167     1.3839     0.0097 C.ar    
   2 C2             0.0021    -0.0041     0.0020 C.ar    
   3 C3             1.2118    -0.6847    -0.0127 C.ar    
   4 C4             2.3994     0.0168    -0.0198 C.ar    
   5 C5             2.3839     1.4107    -0.0126 C.ar    
   6 C6             1.1674     2.0912     0.0021 C.ar    
   7 C7             3.6592     2.1681    -0.0197 C.2     
   8 C8             3.6977     3.5113    -0.0133 C.2     
   9 S9             5.3855     4.0167    -0.0245 S.3     
  10 C10            5.8934     2.3308    -0.0372 C.2     
  11 N11            4.8468     1.5645    -0.0273 N.2     
  12 N12            7.2071     1.8909    -0.0505 N.pl3   
  13 O13           -1.1665    -0.6982     0.0094 O.3     
  14 C14           -1.0741    -2.1241     0.0009 C.3     
  15 H15           -0.9596     1.9105     0.0170 H       
  16 H16            1.2231    -1.7646    -0.0183 H       
  17 H17            3.3402    -0.5133    -0.0305 H       
  18 H18            1.1521     3.1710     0.0074 H       
  19 H19            2.8407     4.1685    -0.0033 H       
  20 H20            7.9338     2.5335    -0.0532 H       
  21 H21            7.4003     0.9403    -0.0572 H       
  22 H22           -0.5463    -2.4487    -0.8959 H       
  23 H23           -0.5294    -2.4582     0.8839 H       
  24 H24           -2.0761    -2.5532     0.0081 H       
@<TRIPOS>BOND
   1    1    2 ar
   2    1    6 ar
   3    1   15 1
   4    2    3 ar
   5    2   13 1
   6    3    4 ar
   7    3   16 1
   8    4    5 ar
   9    4   17 1
  10    5    6 ar
  11    5    7 1
  12    6   18 1
  13    7    8 2
  14    7   11 1
  15    8    9 1
  16    8   19 1
  17    9   10 1
  18   10   11 2
  19   10   12 1
  20   12   20 1
  21   12   21 1
  22   13   14 1
  23   14   22 1
  24   14   23 1
  25   14   24 1

#	End of record

