#	Name: ASD02500595
#	Creating user name:	WinNT
#	Creation time:	15. 06. 2019 20:23

#	Modifying user name:	WinNT
#	Modification time:	15. 06. 2019 20:23

#	Program:	/corina/corina34_cracker 3.40 0067  02.08.2006

@<TRIPOS>MOLECULE
ASD02500595
  67   71    0    0    0
SMALL
NO_CHARGES


@<TRIPOS>ATOM
   1 N1             1.2967     4.0034    -2.5528 N.ar    
   2 C2             2.4060     3.8241    -1.8780 C.ar    
   3 C3             3.4990     3.1570    -2.4276 C.ar    
   4 C4             3.4301     2.6702    -3.7018 C.ar    
   5 C5             2.2369     2.8643    -4.4233 C.ar    
   6 C6             2.0924     2.3925    -5.7377 C.ar    
   7 C7             0.9223     2.6006    -6.4024 C.ar    
   8 C8            -0.1342     3.2764    -5.7956 C.ar    
   9 C9            -0.0283     3.7471    -4.5230 C.ar    
  10 C10            1.1637     3.5519    -3.8041 C.ar    
  11 S11           -1.3798     4.5989    -3.7798 S.o2    
  12 O12           -0.8518     5.8097    -3.2560 O.2     
  13 O13           -2.4453     4.5578    -4.7191 O.2     
  14 N14           -1.8693     3.7003    -2.4778 N.am    
  15 C15           -2.4603     2.4554    -2.6739 C.ar    
  16 C16           -3.4896     2.0336    -1.8334 C.ar    
  17 C17           -4.0758     0.8020    -2.0257 C.ar    
  18 C18           -3.6371    -0.0242    -3.0652 C.ar    
  19 C19           -2.6052     0.4025    -3.9053 C.ar    
  20 C20           -2.0268     1.6370    -3.7118 C.ar    
  21 C21           -4.2621    -1.3441    -3.2742 C.2     
  22 O22           -4.5044    -1.7304    -4.4014 O.2     
  23 N23           -4.5645    -2.1216    -2.2157 N.am    
  24 C24           -5.0840    -3.4847    -2.4041 C.3     
  25 C25           -4.2440    -4.4471    -1.5577 C.3     
  26 N26           -4.2215    -3.9778    -0.1658 N.3     
  27 C27           -3.5716    -2.6650    -0.0565 C.3     
  28 C28           -4.3782    -1.6318    -0.8414 C.3     
  29 C29           -3.5721    -4.9615     0.7109 C.3     
  30 C30           -3.4886    -4.4012     2.1322 C.3     
  31 C31           -4.9008    -4.1547     2.6669 C.3     
  32 C32           -2.7804    -5.3906     3.0214 C.ar    
  33 C33           -1.6122    -5.0282     3.6655 C.ar    
  34 C34           -0.9625    -5.9357     4.4811 C.ar    
  35 C35           -1.4813    -7.2055     4.6529 C.ar    
  36 C36           -2.6500    -7.5675     4.0095 C.ar    
  37 C37           -3.3020    -6.6586     3.1974 C.ar    
  38 F38           -3.9118     2.8330    -0.8294 F       
  39 H39            2.4749     4.2037    -0.8692 H       
  40 H40            4.3999     3.0254    -1.8467 H       
  41 H41            4.2677     2.1510    -4.1436 H       
  42 H42            2.9046     1.8679    -6.2189 H       
  43 H43            0.8119     2.2374    -7.4135 H       
  44 H44           -1.0518     3.4295    -6.3441 H       
  45 H45           -1.7442     4.0414    -1.5784 H       
  46 H46           -4.8729     0.4749    -1.3745 H       
  47 H47           -2.2646    -0.2337    -4.7088 H       
  48 H48           -1.2325     1.9686    -4.3642 H       
  49 H49           -6.1247    -3.5276    -2.0830 H       
  50 H50           -5.0105    -3.7624    -3.4556 H       
  51 H51           -4.6821    -5.4443    -1.5983 H       
  52 H52           -3.2264    -4.4803    -1.9468 H       
  53 H53           -3.5220    -2.3699     0.9916 H       
  54 H54           -2.5633    -2.7231    -0.4665 H       
  55 H55           -3.8383    -0.6851    -0.8602 H       
  56 H56           -5.3498    -1.4931    -0.3672 H       
  57 H57           -4.1543    -5.8829     0.7172 H       
  58 H58           -2.5674    -5.1690     0.3426 H       
  59 H59           -2.9354    -3.4621     2.1207 H       
  60 H60           -4.8413    -3.7556     3.6795 H       
  61 H61           -5.4131    -3.4391     2.0238 H       
  62 H62           -5.4540    -5.0938     2.6785 H       
  63 H63           -1.2069    -4.0362     3.5312 H       
  64 H64           -0.0494    -5.6529     4.9837 H       
  65 H65           -0.9733    -7.9148     5.2895 H       
  66 H66           -3.0551    -8.5597     4.1435 H       
  67 H67           -4.2170    -6.9402     2.6976 H       
@<TRIPOS>BOND
   1    1    2 ar
   2    1   10 ar
   3    2    3 ar
   4    2   39 1
   5    3    4 ar
   6    3   40 1
   7    4    5 ar
   8    4   41 1
   9    5    6 ar
  10    5   10 ar
  11    6    7 ar
  12    6   42 1
  13    7    8 ar
  14    7   43 1
  15    8    9 ar
  16    8   44 1
  17    9   10 ar
  18    9   11 1
  19   11   12 2
  20   11   13 2
  21   11   14 am
  22   14   15 1
  23   14   45 1
  24   15   16 ar
  25   15   20 ar
  26   16   17 ar
  27   16   38 1
  28   17   18 ar
  29   17   46 1
  30   18   19 ar
  31   18   21 1
  32   19   20 ar
  33   19   47 1
  34   20   48 1
  35   21   22 2
  36   21   23 am
  37   23   24 1
  38   23   28 1
  39   24   25 1
  40   24   49 1
  41   24   50 1
  42   25   26 1
  43   25   51 1
  44   25   52 1
  45   26   27 1
  46   26   29 1
  47   27   28 1
  48   27   53 1
  49   27   54 1
  50   28   55 1
  51   28   56 1
  52   29   30 1
  53   29   57 1
  54   29   58 1
  55   30   31 1
  56   30   32 1
  57   30   59 1
  58   31   60 1
  59   31   61 1
  60   31   62 1
  61   32   33 ar
  62   32   37 ar
  63   33   34 ar
  64   33   63 1
  65   34   35 ar
  66   34   64 1
  67   35   36 ar
  68   35   65 1
  69   36   37 ar
  70   36   66 1
  71   37   67 1

#	End of record

