#	Name: ASD01912407
#	Creating user name:	WinNT
#	Creation time:	15. 06. 2019 19:59

#	Modifying user name:	WinNT
#	Modification time:	15. 06. 2019 19:59

#	Program:	/corina/corina34_cracker 3.40 0067  02.08.2006

@<TRIPOS>MOLECULE
ASD01912407
  47   50    0    0    0
SMALL
NO_CHARGES


@<TRIPOS>ATOM
   1 C1            -0.0170     1.4042     0.0098 C.2     
   2 C2             0.0021    -0.0041     0.0020 C.2     
   3 C3             1.1974    -0.6548    -0.0129 C.2     
   4 C4             2.3912     0.0841    -0.0203 C.2     
   5 C5             2.3562     1.4339    -0.0123 C.2     
   6 N6             1.1647     2.0979     0.0022 N.pl3   
   7 N7            -1.0121     2.2820     0.0293 N.2     
   8 C8            -0.5065     3.5204     0.0283 C.2     
   9 C9             0.8482     3.4321     0.0124 C.2     
  10 N10            1.8072     4.5672     0.0100 N.pl3   
  11 O11            2.1904     5.0386    -1.0457 O.2     
  12 O12            2.2100     5.0264     1.0638 O.2     
  13 N13           -1.2493     4.7078     0.0453 N.3     
  14 C14           -2.6903     4.4268     0.0655 C.3     
  15 C15           -3.4590     5.7269     0.3284 C.3     
  16 C16           -3.0175     6.7535    -0.6935 C.2     
  17 C17           -1.5301     6.9510    -0.8983 C.3     
  18 C18           -0.8840     5.5732    -1.0832 C.3     
  19 C19           -3.9079     7.4592    -1.3894 C.2     
  20 C20           -3.4639     8.4240    -2.3499 C.1     
  21 C21           -3.0999     9.2151    -3.1373 C.1     
  22 C22           -2.6559    10.1799    -4.0978 C.ar    
  23 C23           -3.5943    10.9177    -4.8254 C.ar    
  24 C24           -3.1488    11.8453    -5.7489 C.ar    
  25 C25           -1.7801    12.0085    -5.9184 C.ar    
  26 C26           -0.9061    11.2457    -5.1656 C.ar    
  27 N27           -1.3536    10.3718    -4.2876 N.ar    
  28 C28            0.5795    11.4213    -5.3479 C.3     
  29 H29           -0.9226    -0.5620     0.0082 H       
  30 H30            1.2274    -1.7344    -0.0186 H       
  31 H31            3.3413    -0.4291    -0.0321 H       
  32 H32            3.2802     1.9930    -0.0178 H       
  33 H33           -2.9936     4.0133    -0.8963 H       
  34 H34           -2.9096     3.7087     0.8556 H       
  35 H35           -4.5296     5.5472     0.2301 H       
  36 H36           -3.2370     6.0885     1.3324 H       
  37 H37           -1.3589     7.5595    -1.7863 H       
  38 H38           -1.1011     7.4440    -0.0259 H       
  39 H39            0.1998     5.6821    -1.1219 H       
  40 H40           -1.2382     5.1274    -2.0127 H       
  41 H41           -4.9645     7.3035    -1.2291 H       
  42 H42           -4.6519    10.7650    -4.6686 H       
  43 H43           -3.8499    12.4299    -6.3261 H       
  44 H44           -1.4015    12.7250    -6.6323 H       
  45 H45            0.9416    12.1877    -4.6627 H       
  46 H46            1.0851    10.4786    -5.1387 H       
  47 H47            0.7862    11.7245    -6.3743 H       
@<TRIPOS>BOND
   1    1    2 1
   2    1    6 1
   3    1    7 2
   4    2    3 2
   5    2   29 1
   6    3    4 1
   7    3   30 1
   8    4    5 2
   9    4   31 1
  10    5    6 1
  11    5   32 1
  12    6    9 1
  13    7    8 1
  14    8    9 2
  15    8   13 1
  16    9   10 1
  17   10   11 2
  18   10   12 2
  19   13   14 1
  20   13   18 1
  21   14   15 1
  22   14   33 1
  23   14   34 1
  24   15   16 1
  25   15   35 1
  26   15   36 1
  27   16   17 1
  28   16   19 2
  29   17   18 1
  30   17   37 1
  31   17   38 1
  32   18   39 1
  33   18   40 1
  34   19   20 1
  35   19   41 1
  36   20   21 3
  37   21   22 1
  38   22   23 ar
  39   22   27 ar
  40   23   24 ar
  41   23   42 1
  42   24   25 ar
  43   24   43 1
  44   25   26 ar
  45   25   44 1
  46   26   27 ar
  47   26   28 1
  48   28   45 1
  49   28   46 1
  50   28   47 1

#	End of record

