#	Name: ASD08070210
#	Creating user name:	WinNT
#	Creation time:	15. 06. 2019 21:14

#	Modifying user name:	WinNT
#	Modification time:	15. 06. 2019 21:14

#	Program:	/corina/corina34_cracker 3.40 0067  02.08.2006

@<TRIPOS>MOLECULE
ASD08070210
  42   43    0    0    0
SMALL
NO_CHARGES


@<TRIPOS>ATOM
   1 N1            -0.0157     1.3038     0.0092 N.ar    
   2 C2             0.0021    -0.0041     0.0020 C.ar    
   3 C3             1.2101    -0.7233    -0.0129 C.ar    
   4 C4             2.4167    -0.0332    -0.0207 C.ar    
   5 C5             2.3726     1.3715    -0.0132 C.ar    
   6 C6             3.5506     2.1372    -0.0213 C.ar    
   7 C7             3.4698     3.4965    -0.0147 C.ar    
   8 C8             2.2335     4.1381     0.0005 C.ar    
   9 C9             1.0723     3.4270     0.0087 C.ar    
  10 C10            1.1131     2.0228     0.0023 C.ar    
  11 C11            1.1972    -2.2008    -0.0198 C.2     
  12 O12            2.2445    -2.8178    -0.0327 O.2     
  13 N13            0.0242    -2.8645    -0.0117 N.am    
  14 C14           -2.6503    -4.9340     2.6973 C.3     
  15 C15           -1.3444    -4.4325     2.0776 C.3     
  16 C16           -1.2945    -4.8309     0.6012 C.3     
  17 C17            0.0113    -4.3294    -0.0186 C.3     
  18 C18            0.1189    -4.8337    -1.4591 C.3     
  19 C19            1.4789    -4.4381    -2.0377 C.3     
  20 C20            1.5864    -4.9424    -3.4782 C.3     
  21 H21           -0.9332    -0.5442     0.0080 H       
  22 H22            3.3593    -0.5603    -0.0318 H       
  23 H23            4.5146     1.6504    -0.0323 H       
  24 H24            4.3757     4.0845    -0.0209 H       
  25 H25            2.1953     5.2174     0.0062 H       
  26 H26            0.1225     3.9411     0.0208 H       
  27 H27           -0.8115    -2.3722    -0.0014 H       
  28 H28           -2.6858    -4.6502     3.7491 H       
  29 H29           -3.4958    -4.4895     2.1723 H       
  30 H30           -2.6996    -6.0195     2.6120 H       
  31 H31           -1.2951    -3.3470     2.1629 H       
  32 H32           -0.4989    -4.8770     2.6026 H       
  33 H33           -1.3439    -5.9164     0.5159 H       
  34 H34           -2.1401    -4.3864     0.0762 H       
  35 H35            0.8555    -4.7029     0.5611 H       
  36 H36            0.0202    -5.9191    -1.4724 H       
  37 H37           -0.6747    -4.3893    -2.0598 H       
  38 H38            1.5776    -3.3527    -2.0244 H       
  39 H39            2.2725    -4.8825    -1.4370 H       
  40 H40            2.5553    -4.6606    -3.8904 H       
  41 H41            1.4877    -6.0278    -3.4915 H       
  42 H42            0.7929    -4.4980    -4.0789 H       
@<TRIPOS>BOND
   1    1    2 ar
   2    1   10 ar
   3    2    3 ar
   4    2   21 1
   5    3    4 ar
   6    3   11 1
   7    4    5 ar
   8    4   22 1
   9    5    6 ar
  10    5   10 ar
  11    6    7 ar
  12    6   23 1
  13    7    8 ar
  14    7   24 1
  15    8    9 ar
  16    8   25 1
  17    9   10 ar
  18    9   26 1
  19   11   12 2
  20   11   13 am
  21   13   17 1
  22   13   27 1
  23   14   15 1
  24   14   28 1
  25   14   29 1
  26   14   30 1
  27   15   16 1
  28   15   31 1
  29   15   32 1
  30   16   17 1
  31   16   33 1
  32   16   34 1
  33   17   18 1
  34   17   35 1
  35   18   19 1
  36   18   36 1
  37   18   37 1
  38   19   20 1
  39   19   38 1
  40   19   39 1
  41   20   40 1
  42   20   41 1
  43   20   42 1

#	End of record

