#	Name: ASD02038037
#	Creating user name:	WinNT
#	Creation time:	15. 06. 2019 20:16

#	Modifying user name:	WinNT
#	Modification time:	15. 06. 2019 20:16

#	Program:	/corina/corina34_cracker 3.40 0067  02.08.2006

@<TRIPOS>MOLECULE
ASD02038037
  48   50    0    0    0
SMALL
NO_CHARGES


@<TRIPOS>ATOM
   1 C1            -0.0153     1.3520     0.1198 C.2     
   2 N2             1.2245     3.4377    -0.0929 N.am    
   3 C3             1.2414     2.0934     0.0014 C.2     
   4 C4             1.0906     7.2157     1.8606 C.3     
   5 O5            -0.0176     8.0794     1.5997 O.3     
   6 C6            -0.2132     9.1109     2.4640 C.ar    
   7 C7            -1.2703     9.9875     2.2697 C.ar    
   8 C8             0.6412     9.2831     3.5429 C.ar    
   9 C9             0.4425    10.3309     4.4208 C.ar    
  10 C10           -0.6110    11.2111     4.2231 C.ar    
  11 C11           -1.4689    11.0353     3.1475 C.ar    
  12 O12            2.3015     1.4958    -0.0117 O.2     
  13 O13           -0.8070    12.2421     5.0878 O.3     
  14 C14           -0.0062     0.0036     0.1092 C.2     
  15 C15           -1.2695    -0.7417     0.2281 C.ar    
  16 C16           -1.2638    -2.1405     0.2176 C.ar    
  17 C17           -2.4806    -0.0548     0.3581 C.ar    
  18 C18           -3.6611    -0.7602     0.4696 C.ar    
  19 C19           -3.6476    -2.1465     0.4534 C.ar    
  20 C20           -2.4504    -2.8325     0.3298 C.ar    
  21 Cl21          -5.1372    -3.0267     0.5948 Cl      
  22 Cl22          -5.1662     0.0896     0.6310 Cl      
  23 C23            2.4782     4.2038    -0.0965 C.3     
  24 C24            2.4051     5.2742     0.9970 C.3     
  25 C25            1.1489     6.1236     0.7906 C.3     
  26 C26           -0.0929     5.2359     0.8999 C.3     
  27 C27           -0.0479     4.1646    -0.2003 C.3     
  28 H28           -0.9492     1.8850     0.2199 H       
  29 H29            2.0144     7.7938     1.8404 H       
  30 H30            0.9705     6.7568     2.8419 H       
  31 H31           -1.9380     9.8510     1.4318 H       
  32 H32            1.4615     8.5977     3.6969 H       
  33 H33            1.1074    10.4645     5.2614 H       
  34 H34           -2.2890    11.7209     2.9933 H       
  35 H35           -0.3418    13.0540     4.8438 H       
  36 H36            0.9282    -0.5294     0.0135 H       
  37 H37           -0.3314    -2.6770     0.1213 H       
  38 H38           -2.4919     1.0251     0.3714 H       
  39 H39           -2.4473    -3.9125     0.3176 H       
  40 H40            3.3156     3.5350     0.1023 H       
  41 H41            2.6117     4.6815    -1.0671 H       
  42 H42            2.3627     4.7936     1.9743 H       
  43 H43            3.2880     5.9111     0.9422 H       
  44 H44            1.1802     6.5842    -0.1968 H       
  45 H45           -0.1117     4.7556     1.8782 H       
  46 H46           -0.9880     5.8455     0.7761 H       
  47 H47           -0.1211     4.6414    -1.1777 H       
  48 H48           -0.8768     3.4694    -0.0675 H       
@<TRIPOS>BOND
   1    1   14 2
   2    1    3 1
   3    1   28 1
   4    2    3 am
   5    2   23 1
   6    2   27 1
   7    3   12 2
   8    4    5 1
   9    4   25 1
  10    4   29 1
  11    4   30 1
  12    5    6 1
  13    6    7 ar
  14    6    8 ar
  15    7   11 ar
  16    7   31 1
  17    8    9 ar
  18    8   32 1
  19    9   10 ar
  20    9   33 1
  21   10   11 ar
  22   10   13 1
  23   11   34 1
  24   13   35 1
  25   14   15 1
  26   14   36 1
  27   15   16 ar
  28   15   17 ar
  29   16   20 ar
  30   16   37 1
  31   17   18 ar
  32   17   38 1
  33   18   19 ar
  34   18   22 1
  35   19   20 ar
  36   19   21 1
  37   20   39 1
  38   23   24 1
  39   23   40 1
  40   23   41 1
  41   24   25 1
  42   24   42 1
  43   24   43 1
  44   25   26 1
  45   25   44 1
  46   26   27 1
  47   26   45 1
  48   26   46 1
  49   27   47 1
  50   27   48 1

#	End of record

