#	Name: ASD02860005
#	Creating user name:	WinNT
#	Creation time:	15. 06. 2019 20:26

#	Modifying user name:	WinNT
#	Modification time:	15. 06. 2019 20:26

#	Program:	/corina/corina34_cracker 3.40 0067  02.08.2006

@<TRIPOS>MOLECULE
ASD02860005
 144  147    0    0    0
SMALL
NO_CHARGES


@<TRIPOS>ATOM
   1 N1            -2.3087     4.0646     2.7796 N.3     
   2 C2            -2.1071     2.7559     2.1436 C.3     
   3 C3            -0.8645     2.1119     2.7025 C.2     
   4 N4            -0.6872     0.7805     2.5912 N.am    
   5 O5            -0.0241     2.7917     3.2525 O.2     
   6 C6            -1.9499     2.9416     0.6331 C.3     
   7 C7            -3.2567     3.4795     0.0467 C.3     
   8 C8            -3.0996     3.6652    -1.4638 C.3     
   9 N9            -4.3508     4.1803    -2.0253 N.pl3   
  10 C10           -4.4487     4.4273    -3.3742 C.2     
  11 N11           -5.6230     4.9106    -3.9011 N.am    
  12 N12           -3.4283     4.2032    -4.1535 N.2     
  13 C13            0.5208     0.1544     3.1346 C.3     
  14 C14            0.4738    -1.3530     2.8773 C.3     
  15 C15            1.7353    -2.0068     3.4447 C.3     
  16 N16            1.6901    -3.4542     3.1977 N.3     
  17 C17            2.8882    -4.1168     3.7302 C.3     
  18 C18            2.8051    -5.6194     3.4546 C.3     
  19 C19            4.0530    -6.3095     4.0091 C.3     
  20 N20            3.9733    -7.7483     3.7452 N.am    
  21 C21            4.9688    -8.5632     4.1469 C.2     
  22 C22            4.8869   -10.0433     3.8754 C.3     
  23 O23            5.9306    -8.1054     4.7269 O.2     
  24 N24            6.2309   -10.6310     3.9557 N.3     
  25 C25            3.9789   -10.7031     4.9151 C.3     
  26 C26            3.7955   -12.1817     4.5672 C.3     
  27 C27            2.8875   -12.8414     5.6070 C.3     
  28 N28            2.7119   -14.2572     5.2739 N.pl3   
  29 C29            1.9305   -15.0593     6.0715 C.2     
  30 N30            1.3458   -14.5601     7.1240 N.2     
  31 N31            1.7657   -16.3879     5.7589 N.am    
  32 S32           -5.7235     5.2605    -5.5166 S.o2    
  33 O33           -5.3131     4.0884    -6.2073 O.2     
  34 O34           -6.9881     5.8772    -5.7157 O.2     
  35 C35           -4.5102     6.4911    -5.8603 C.ar    
  36 C36           -4.6187     7.7467    -5.2920 C.ar    
  37 C37           -3.6687     8.7104    -5.5631 C.ar    
  38 C38           -2.6011     8.4229    -6.4073 C.ar    
  39 C39           -2.4929     7.1636    -6.9715 C.ar    
  40 C40           -3.4472     6.1997    -6.6931 C.ar    
  41 O41           -1.6919     9.4003    -6.6588 O.3     
  42 C42           -0.4291     9.0135    -7.2026 C.3     
  43 C43           -0.6803     8.0854    -8.3979 C.3     
  44 C44           -1.3457     6.8069    -7.8824 C.3     
  45 C45           -3.3319     4.8299    -7.3106 C.3     
  46 C46           -5.7739     8.0630    -4.3774 C.3     
  47 C47           -3.7886    10.0787    -4.9431 C.3     
  48 C48            0.3343    10.2557    -7.6664 C.3     
  49 C49            0.3853     8.2747    -6.1388 C.3     
  50 S50            0.7122   -17.3198     6.6331 S.o2    
  51 O51           -0.5184   -16.6101     6.6666 O.2     
  52 O52            0.8330   -18.6427     6.1285 O.2     
  53 C53            1.3068   -17.3634     8.2911 C.ar    
  54 C54            2.5133   -17.9749     8.5771 C.ar    
  55 C55            2.9773   -18.0100     9.8765 C.ar    
  56 C56            2.2347   -17.4318    10.9008 C.ar    
  57 C57            1.0292   -16.8166    10.6107 C.ar    
  58 C58            0.5703   -16.7816     9.3048 C.ar    
  59 O59            2.7188   -17.4956    12.1684 O.3     
  60 C60            2.1685   -16.6038    13.1388 C.3     
  61 C61            0.6388   -16.6866    13.0603 C.3     
  62 C62            0.1989   -16.1678    11.6890 C.3     
  63 C63           -0.7442   -16.1154     8.9894 C.3     
  64 C64            3.3209   -18.6033     7.4709 C.3     
  65 C65            4.2924   -18.6772    10.1866 C.3     
  66 C66            2.6355   -17.0125    14.5373 C.3     
  67 C67            2.6231   -15.1736    12.8406 C.3     
  68 H68           -1.5233     4.6746     2.6086 H       
  69 H69           -3.1701     4.4886     2.4692 H       
  70 H70           -2.9682     2.1182     2.3437 H       
  71 H71           -1.3593     0.2368     2.1514 H       
  72 H72           -1.1447     3.6493     0.4359 H       
  73 H73           -1.7122     1.9830     0.1720 H       
  74 H74           -4.0619     2.7718     0.2440 H       
  75 H75           -3.4944     4.4381     0.5079 H       
  76 H76           -2.2944     4.3729    -1.6610 H       
  77 H77           -2.8618     2.7066    -1.9250 H       
  78 H78           -5.1103     4.3471    -1.4453 H       
  79 H79           -6.3926     5.0468    -3.3266 H       
  80 H80           -3.5158     4.3190    -5.1126 H       
  81 H81            1.3997     0.5786     2.6490 H       
  82 H82            0.5742     0.3384     4.2076 H       
  83 H83           -0.4051    -1.7772     3.3628 H       
  84 H84            0.4204    -1.5370     1.8043 H       
  85 H85            2.6142    -1.5826     2.9592 H       
  86 H86            1.7887    -1.8229     4.5178 H       
  87 H87            0.8508    -3.8608     3.5829 H       
  88 H88            3.7751    -3.7072     3.2467 H       
  89 H89            2.9496    -3.9474     4.8052 H       
  90 H90            1.9182    -6.0290     3.9381 H       
  91 H91            2.7437    -5.7888     2.3795 H       
  92 H92            4.9398    -5.8999     3.5256 H       
  93 H93            4.1143    -6.1402     5.0842 H       
  94 H94            3.2041    -8.1145     3.2813 H       
  95 H95            4.4774   -10.2078     2.8787 H       
  96 H96            6.6324   -10.4917     4.8708 H       
  97 H97            6.2122   -11.6105     3.7143 H       
  98 H98            4.4332   -10.6157     5.9020 H       
  99 H99            3.0082   -10.2071     4.9168 H       
 100 H100           3.3412   -12.2691     3.5803 H       
 101 H101           4.7662   -12.6776     4.5656 H       
 102 H102           3.3418   -12.7540     6.5939 H       
 103 H103           1.9168   -12.3455     5.6086 H       
 104 H104           3.1470   -14.6287     4.4906 H       
 105 H105           0.8650   -15.1418     7.7334 H       
 106 H106           2.2666   -16.7795     5.0263 H       
 107 H107          -1.3375     8.5785    -9.1142 H       
 108 H108           0.2672     7.8389    -8.8770 H       
 109 H109          -0.6153     6.2147    -7.3310 H       
 110 H110          -1.7194     6.2268    -8.7262 H       
 111 H111          -2.9026     4.1392    -6.5848 H       
 112 H112          -4.3212     4.4794    -7.6046 H       
 113 H113          -2.6884     4.8803    -8.1889 H       
 114 H114          -5.5006     7.8219    -3.3501 H       
 115 H115          -6.0148     9.1236    -4.4498 H       
 116 H116          -6.6418     7.4725    -4.6707 H       
 117 H117          -3.2655    10.0914    -3.9869 H       
 118 H118          -3.3462    10.8194    -5.6091 H       
 119 H119          -4.8408    10.3149    -4.7847 H       
 120 H120           0.4946    10.9213    -6.8183 H       
 121 H121           1.2972     9.9567    -8.0806 H       
 122 H122          -0.2449    10.7739    -8.4306 H       
 123 H123          -0.1577     7.3857    -5.8180 H       
 124 H124           1.3481     7.9811    -6.5572 H       
 125 H125           0.5458     8.9309    -5.2834 H       
 126 H126           0.3203   -17.7220    13.1809 H       
 127 H127           0.1969   -16.0720    13.8446 H       
 128 H128           0.3339   -15.0869    11.6498 H       
 129 H129          -0.8526   -16.4074    11.5307 H       
 130 H130          -0.5586   -15.1534     8.5117 H       
 131 H131          -1.3208   -16.7500     8.3164 H       
 132 H132          -1.3039   -15.9611     9.9119 H       
 133 H133           4.0035   -17.8629     7.0537 H       
 134 H134           3.8932   -19.4410     7.8696 H       
 135 H135           2.6504   -18.9605     6.6893 H       
 136 H136           5.0975   -17.9462    10.1111 H       
 137 H137           4.2642   -19.0836    11.1976 H       
 138 H138           4.4669   -19.4845     9.4753 H       
 139 H139           3.7237   -16.9704    14.5838 H       
 140 H140           2.2137   -16.3299    15.2751 H       
 141 H141           2.3018   -18.0282    14.7495 H       
 142 H142           2.2805   -14.8832    11.8474 H       
 143 H143           2.2013   -14.4961    13.5830 H       
 144 H144           3.7112   -15.1228    12.8789 H       
@<TRIPOS>BOND
   1    1    2 1
   2    1   68 1
   3    1   69 1
   4    2    3 1
   5    2    6 1
   6    2   70 1
   7    3    4 am
   8    3    5 2
   9    4   13 1
  10    4   71 1
  11    6    7 1
  12    6   72 1
  13    6   73 1
  14    7    8 1
  15    7   74 1
  16    7   75 1
  17    8    9 1
  18    8   76 1
  19    8   77 1
  20    9   10 1
  21    9   78 1
  22   10   11 1
  23   10   12 2
  24   11   32 am
  25   11   79 1
  26   12   80 1
  27   13   14 1
  28   13   81 1
  29   13   82 1
  30   14   15 1
  31   14   83 1
  32   14   84 1
  33   15   16 1
  34   15   85 1
  35   15   86 1
  36   16   17 1
  37   16   87 1
  38   17   18 1
  39   17   88 1
  40   17   89 1
  41   18   19 1
  42   18   90 1
  43   18   91 1
  44   19   20 1
  45   19   92 1
  46   19   93 1
  47   20   21 am
  48   20   94 1
  49   21   22 1
  50   21   23 2
  51   22   24 1
  52   22   25 1
  53   22   95 1
  54   24   96 1
  55   24   97 1
  56   25   26 1
  57   25   98 1
  58   25   99 1
  59   26   27 1
  60   26  100 1
  61   26  101 1
  62   27   28 1
  63   27  102 1
  64   27  103 1
  65   28   29 1
  66   28  104 1
  67   29   30 2
  68   29   31 1
  69   30  105 1
  70   31   50 am
  71   31  106 1
  72   32   33 2
  73   32   34 2
  74   32   35 1
  75   35   36 ar
  76   35   40 ar
  77   36   37 ar
  78   36   46 1
  79   37   38 ar
  80   37   47 1
  81   38   39 ar
  82   38   41 1
  83   39   40 ar
  84   39   44 1
  85   40   45 1
  86   41   42 1
  87   42   43 1
  88   42   48 1
  89   42   49 1
  90   43   44 1
  91   43  107 1
  92   43  108 1
  93   44  109 1
  94   44  110 1
  95   45  111 1
  96   45  112 1
  97   45  113 1
  98   46  114 1
  99   46  115 1
 100   46  116 1
 101   47  117 1
 102   47  118 1
 103   47  119 1
 104   48  120 1
 105   48  121 1
 106   48  122 1
 107   49  123 1
 108   49  124 1
 109   49  125 1
 110   50   51 2
 111   50   52 2
 112   50   53 1
 113   53   54 ar
 114   53   58 ar
 115   54   55 ar
 116   54   64 1
 117   55   56 ar
 118   55   65 1
 119   56   57 ar
 120   56   59 1
 121   57   58 ar
 122   57   62 1
 123   58   63 1
 124   59   60 1
 125   60   61 1
 126   60   66 1
 127   60   67 1
 128   61   62 1
 129   61  126 1
 130   61  127 1
 131   62  128 1
 132   62  129 1
 133   63  130 1
 134   63  131 1
 135   63  132 1
 136   64  133 1
 137   64  134 1
 138   64  135 1
 139   65  136 1
 140   65  137 1
 141   65  138 1
 142   66  139 1
 143   66  140 1
 144   66  141 1
 145   67  142 1
 146   67  143 1
 147   67  144 1

#	End of record

