#	Name: ASD03092066
#	Creating user name:	WinNT
#	Creation time:	15. 06. 2019 20:31

#	Modifying user name:	WinNT
#	Modification time:	15. 06. 2019 20:31

#	Program:	/corina/corina34_cracker 3.40 0067  02.08.2006

@<TRIPOS>MOLECULE
ASD03092066
  50   52    0    0    0
SMALL
NO_CHARGES


@<TRIPOS>ATOM
   1 N1             0.2753     0.8999    -0.3993 N.pl3   
   2 C2             0.0727    -0.3560     0.0913 C.2     
   3 C3            -1.2684    -0.4996     0.3068 C.2     
   4 C4            -1.8921     0.6987    -0.0624 C.2     
   5 N5            -0.9700     1.5361    -0.4781 N.2     
   6 N6            -3.2658     0.9615     0.0058 N.pl3   
   7 C7            -3.7473     2.2408    -0.2821 C.ar    
   8 C8            -5.0282     2.4027    -0.7952 C.ar    
   9 C9            -5.5043     3.6691    -1.0801 C.ar    
  10 C10           -4.7071     4.7767    -0.8556 C.ar    
  11 C11           -2.9484     3.3528    -0.0506 C.ar    
  12 C12            1.1141    -1.3758     0.3437 C.ar    
  13 C13            1.5668     1.4825    -0.7718 C.3     
  14 C14            2.3491    -1.3198    -0.3117 C.ar    
  15 C15            3.2916    -2.2915    -0.0465 C.ar    
  16 N16            3.0406    -3.2628     0.8104 N.ar    
  17 C17            1.8896    -3.3526     1.4496 C.ar    
  18 C18            0.8936    -2.4201     1.2491 C.ar    
  19 C19            1.6627    -4.4862     2.4163 C.3     
  20 C20            1.8030     1.2792    -2.2462 C.2     
  21 N21            2.9354     1.7364    -2.8166 N.am    
  22 C22           -3.4266     4.6200    -0.3436 C.ar    
  23 Cl23          -7.1052     3.8692    -1.7212 Cl      
  24 O24            0.9742     0.7043    -2.9196 O.2     
  25 C25            3.1650     1.5388    -4.2499 C.3     
  26 C26            3.9365     2.4309    -2.0032 C.3     
  27 O27           -2.6442     5.7093    -0.1243 O.3     
  28 C28           -3.2039     6.9848    -0.4435 C.3     
  29 H29           -1.7601    -1.3804     0.6926 H       
  30 H30           -3.8830     0.2553     0.2530 H       
  31 H31           -5.6520     1.5390    -0.9719 H       
  32 H32           -5.0813     5.7648    -1.0793 H       
  33 H33           -1.9541     3.2298     0.3528 H       
  34 H34            1.5621     2.5494    -0.5483 H       
  35 H35            2.3615     0.9963    -0.2061 H       
  36 H36            2.5611    -0.5280    -1.0149 H       
  37 H37            4.2478    -2.2570    -0.5474 H       
  38 H38           -0.0460    -2.4999     1.7757 H       
  39 H39            1.9869    -4.1848     3.4123 H       
  40 H40            0.6022    -4.7370     2.4398 H       
  41 H41            2.2349    -5.3569     2.0959 H       
  42 H42            2.7605     2.3864    -4.8030 H       
  43 H43            4.2356     1.4593    -4.4388 H       
  44 H44            2.6699     0.6235    -4.5744 H       
  45 H45            3.5933     2.4820    -0.9699 H       
  46 H46            4.8803     1.8872    -2.0462 H       
  47 H47            4.0809     3.4403    -2.3884 H       
  48 H48           -3.4581     7.0153    -1.5030 H       
  49 H49           -4.1033     7.1459     0.1507 H       
  50 H50           -2.4771     7.7663    -0.2216 H       
@<TRIPOS>BOND
   1    1    2 1
   2    1   13 1
   3    1    5 1
   4    2    3 2
   5    2   12 1
   6    3    4 1
   7    3   29 1
   8    4    5 2
   9    4    6 1
  10    6    7 1
  11    6   30 1
  12    7    8 ar
  13    7   11 ar
  14    8    9 ar
  15    8   31 1
  16    9   10 ar
  17    9   23 1
  18   10   22 ar
  19   10   32 1
  20   11   22 ar
  21   11   33 1
  22   12   14 ar
  23   12   18 ar
  24   13   20 1
  25   13   34 1
  26   13   35 1
  27   14   15 ar
  28   14   36 1
  29   15   16 ar
  30   15   37 1
  31   16   17 ar
  32   17   18 ar
  33   17   19 1
  34   18   38 1
  35   19   39 1
  36   19   40 1
  37   19   41 1
  38   20   21 am
  39   20   24 2
  40   21   25 1
  41   21   26 1
  42   22   27 1
  43   25   42 1
  44   25   43 1
  45   25   44 1
  46   26   45 1
  47   26   46 1
  48   26   47 1
  49   27   28 1
  50   28   48 1
  51   28   49 1
  52   28   50 1

#	End of record

