#	Name: ASD01900964
#	Creating user name:	WinNT
#	Creation time:	15. 06. 2019 19:52

#	Modifying user name:	WinNT
#	Modification time:	15. 06. 2019 19:52

#	Program:	/corina/corina34_cracker 3.40 0067  02.08.2006

@<TRIPOS>MOLECULE
ASD01900964
  54   58    0    0    0
SMALL
NO_CHARGES


@<TRIPOS>ATOM
   1 C1             0.1357     0.8606    -0.2597 C.ar    
   2 C2             0.3163    -0.5058    -0.2980 C.ar    
   3 C3             1.5901    -1.0445    -0.4071 C.ar    
   4 C4             2.6983    -0.2199    -0.4710 C.ar    
   5 C5             2.5340     1.1538    -0.4279 C.ar    
   6 C6             1.2428     1.7032    -0.3324 C.ar    
   7 N7             3.6188     2.0224    -0.4695 N.pl3   
   8 C8             3.4309     3.3625    -1.0369 C.3     
   9 N9             2.1746     3.9431    -0.5613 N.am    
  10 C10            1.1021     3.1690    -0.3014 C.2     
  11 C11            2.0854     5.3263    -0.3717 C.ar    
  12 C12            1.4382     6.1171    -1.3122 C.ar    
  13 C13            1.3512     7.4823    -1.1223 C.ar    
  14 C14            1.9086     8.0624     0.0037 C.ar    
  15 C15            2.5544     7.2768     0.9422 C.ar    
  16 C16            2.6389     5.9104     0.7602 C.ar    
  17 O17            0.0272     3.6766    -0.0444 O.2     
  18 Cl18           1.7979     9.7788     0.2390 Cl      
  19 Br19           1.8128    -2.9214    -0.4682 Br      
  20 C20            4.5981     4.2591    -0.6132 C.3     
  21 C21            3.4024     3.2659    -2.5648 C.3     
  22 C22            3.2752     4.6715    -3.1568 C.3     
  23 N23            4.4118     5.4927    -2.7212 N.3     
  24 C24            4.4353     5.6366    -1.2601 C.3     
  25 C25            4.3952     6.8060    -3.3793 C.3     
  26 C26            5.5104     7.6575    -2.8295 C.ar    
  27 C27            6.7886     7.5378    -3.3422 C.ar    
  28 C28            7.8115     8.3189    -2.8379 C.ar    
  29 C29            7.5562     9.2199    -1.8211 C.ar    
  30 C30            6.2779     9.3402    -1.3090 C.ar    
  31 C31            5.2540     8.5622    -1.8163 C.ar    
  32 H32           -0.8582     1.2753    -0.1783 H       
  33 H33           -0.5400    -1.1615    -0.2423 H       
  34 H34            3.6874    -0.6457    -0.5538 H       
  35 H35            4.4845     1.7475    -0.1292 H       
  36 H36            1.0037     5.6650    -2.1915 H       
  37 H37            0.8480     8.0977    -1.8534 H       
  38 H38            2.9892     7.7322     1.8197 H       
  39 H39            3.1389     5.2972     1.4953 H       
  40 H40            4.6013     4.3644     0.4717 H       
  41 H41            5.5374     3.8124    -0.9393 H       
  42 H42            4.3248     2.8045    -2.9176 H       
  43 H43            2.5502     2.6615    -2.8756 H       
  44 H44            3.2689     4.6080    -4.2449 H       
  45 H45            2.3459     5.1268    -2.8145 H       
  46 H46            3.5013     6.0873    -0.9245 H       
  47 H47            5.2707     6.2744    -0.9713 H       
  48 H48            4.5326     6.6762    -4.4528 H       
  49 H49            3.4389     7.2943    -3.1918 H       
  50 H50            6.9880     6.8339    -4.1366 H       
  51 H51            8.8103     8.2249    -3.2380 H       
  52 H52            8.3556     9.8296    -1.4265 H       
  53 H53            6.0785    10.0439    -0.5143 H       
  54 H54            4.2545     8.6589    -1.4187 H       
@<TRIPOS>BOND
   1    1    2 ar
   2    1    6 ar
   3    1   32 1
   4    2    3 ar
   5    2   33 1
   6    3    4 ar
   7    3   19 1
   8    4    5 ar
   9    4   34 1
  10    5    7 1
  11    5    6 ar
  12    6   10 1
  13    7    8 1
  14    7   35 1
  15    8    9 1
  16    8   21 1
  17    8   20 1
  18    9   10 am
  19    9   11 1
  20   10   17 2
  21   11   12 ar
  22   11   16 ar
  23   12   13 ar
  24   12   36 1
  25   13   14 ar
  26   13   37 1
  27   14   15 ar
  28   14   18 1
  29   15   16 ar
  30   15   38 1
  31   16   39 1
  32   20   24 1
  33   20   40 1
  34   20   41 1
  35   21   22 1
  36   21   42 1
  37   21   43 1
  38   22   23 1
  39   22   44 1
  40   22   45 1
  41   23   24 1
  42   23   25 1
  43   24   46 1
  44   24   47 1
  45   25   26 1
  46   25   48 1
  47   25   49 1
  48   26   27 ar
  49   26   31 ar
  50   27   28 ar
  51   27   50 1
  52   28   29 ar
  53   28   51 1
  54   29   30 ar
  55   29   52 1
  56   30   31 ar
  57   30   53 1
  58   31   54 1

#	End of record

