#	Name: ASD01410854
#	Creating user name:	WinNT
#	Creation time:	15. 06. 2019 19:18

#	Modifying user name:	WinNT
#	Modification time:	15. 06. 2019 19:18

#	Program:	/corina/corina34_cracker 3.40 0067  02.08.2006

@<TRIPOS>MOLECULE
ASD01410854
 101  107    0    0    0
SMALL
NO_CHARGES


@<TRIPOS>ATOM
   1 C1             0.7529     1.8858     1.9399 C.3     
   2 C2             0.1360     0.5803     2.4916 C.3     
   3 N3             0.0062     0.8296     3.9447 N.am    
   4 C4            -0.1612     2.2698     4.1550 C.3     
   5 C5            -0.0022     2.9540     2.7787 C.3     
   6 O6             2.1590     1.9357     2.1899 O.3     
   7 C7            -1.5331     2.5506     4.7118 C.2     
   8 O8            -2.3035     1.6365     4.9160 O.2     
   9 N9            -1.9040     3.8177     4.9829 N.am    
  10 C10            1.1243    -0.5794     2.3328 C.3     
  11 N11            0.6004    -1.7393     3.0610 N.3     
  12 C12            0.4793    -1.5390     4.4988 C.3     
  13 C13            0.0934    -0.1382     4.8716 C.2     
  14 O14           -0.1443     0.1252     6.0314 O.2     
  15 C15           -0.5796    -2.5010     5.0413 C.3     
  16 C16           -0.2153    -3.9343     4.6489 C.3     
  17 C17           -0.6374    -2.3887     6.5660 C.3     
  18 C18           -3.2695     4.1012     5.4316 C.3     
  19 C19           -4.3549     3.8297     4.4221 C.2     
  20 N20           -4.0307     3.4769     3.1624 N.am    
  21 O21           -5.5202     3.9285     4.7433 O.2     
  22 S22           -5.2174     3.2964     2.0216 S.o2    
  23 C23           -5.9110     4.9607     1.8227 C.3     
  24 C24           -3.5957     3.8487     6.9049 C.3     
  25 C25           -3.4694     5.2823     6.3835 C.3     
  26 C26           -7.1271     5.1145     0.9071 C.3     
  27 C27           -7.2925     5.2268     2.4240 C.3     
  28 O28           -4.5187     2.9039     0.8481 O.2     
  29 O29           -6.1639     2.4317     2.6344 O.2     
  30 C30           -4.9781     3.3479     7.2356 C.2     
  31 C31           -5.1301     2.1962     7.8411 C.2     
  32 C32            2.8971     2.7498     1.3953 C.ar    
  33 C33            4.3026     2.8226     1.5366 C.ar    
  34 C34            2.3018     3.5194     0.4304 C.ar    
  35 C35            3.0870     4.3521    -0.3783 C.ar    
  36 N36            4.4001     4.4165    -0.2351 N.ar    
  37 C37            5.0365     3.6857     0.6857 C.ar    
  38 C38            2.4326     5.1770    -1.4153 C.2     
  39 S39            0.7021     5.2245    -1.7424 S.3     
  40 C40            6.4321     3.7633     0.8285 C.ar    
  41 C41            7.0614     2.9999     1.7851 C.ar    
  42 C42            6.3276     2.1477     2.6161 C.ar    
  43 C43            4.9745     2.0576     2.5011 C.ar    
  44 C44            7.2353     4.6769    -0.0611 C.3     
  45 O45            8.4106     3.0747     1.9234 O.3     
  46 C46            9.0055     2.2580     2.9339 C.3     
  47 N47            3.0421     5.9899    -2.2305 N.2     
  48 C48            2.2978     6.6434    -3.0893 C.2     
  49 C49            0.9826     6.3985    -3.0269 C.2     
  50 C50            2.8853     7.6122    -4.0830 C.3     
  51 C51            3.1254     6.8955    -5.4133 C.3     
  52 C52            1.9137     8.7744    -4.2979 C.3     
  53 C53           -1.9448    -2.1421     4.4512 C.3     
  54 H54            0.5418     2.0004     0.8766 H       
  55 H55           -0.8291     0.3673     2.0320 H       
  56 H56            0.6023     2.6357     4.8415 H       
  57 H57            0.5910     3.8641     2.8673 H       
  58 H58           -0.9769     3.1693     2.3407 H       
  59 H59           -1.2668     4.5419     4.8809 H       
  60 H60            1.2311    -0.8276     1.2768 H       
  61 H61            2.0923    -0.2948     2.7450 H       
  62 H62           -0.2736    -2.0506     2.6644 H       
  63 H63            1.4351    -1.7749     4.9667 H       
  64 H64            0.7574    -4.1900     5.0693 H       
  65 H65           -0.9696    -4.6197     5.0354 H       
  66 H66           -0.1740    -4.0144     3.5627 H       
  67 H67           -1.0647    -1.4251     6.8434 H       
  68 H68           -1.2585    -3.1902     6.9661 H       
  69 H69            0.3696    -2.4709     6.9749 H       
  70 H70           -3.1022     3.3288     2.9240 H       
  71 H71           -5.1883     5.7765     1.8408 H       
  72 H72           -2.7944     3.4716     7.5404 H       
  73 H73           -2.5850     5.8482     6.6761 H       
  74 H74           -4.3861     5.8627     6.2798 H       
  75 H75           -7.2046     6.0316     0.3231 H       
  76 H76           -7.5104     4.2156     0.4242 H       
  77 H77           -7.7846     4.4018     2.9390 H       
  78 H78           -7.4789     6.2178     2.8379 H       
  79 H79           -5.8434     3.9385     6.9733 H       
  80 H80           -6.1208     1.8373     8.0780 H       
  81 H81           -4.2647     1.6056     8.1033 H       
  82 H82            1.2311     3.4840     0.2933 H       
  83 H83            6.8404     1.5563     3.3602 H       
  84 H84            4.4194     1.3955     3.1491 H       
  85 H85            7.3169     5.6587     0.4053 H       
  86 H86            8.2317     4.2594    -0.2057 H       
  87 H87            6.7382     4.7734    -1.0263 H       
  88 H88           10.0844     2.4132     2.9380 H       
  89 H89            8.5959     2.5282     3.9072 H       
  90 H90            8.7899     1.2097     2.7273 H       
  91 H91            0.2248     6.8442    -3.6542 H       
  92 H92            3.8314     7.9956    -3.7009 H       
  93 H93            2.1793     6.5122    -5.7954 H       
  94 H94            3.5503     7.5963    -6.1320 H       
  95 H95            3.8176     6.0676    -5.2602 H       
  96 H96            1.7426     9.2850    -3.3502 H       
  97 H97            2.3386     9.4751    -5.0166 H       
  98 H98            0.9675     8.3910    -4.6800 H       
  99 H99           -1.9036    -2.2221     3.3650 H       
 100 H100          -2.6992    -2.8275     4.8377 H       
 101 H101          -2.2043    -1.1210     4.7307 H       
@<TRIPOS>BOND
   1    1    2 1
   2    1    6 1
   3    1    5 1
   4    1   54 1
   5    2    3 1
   6    2   10 1
   7    2   55 1
   8    3    4 1
   9    3   13 am
  10    4    5 1
  11    4    7 1
  12    4   56 1
  13    5   57 1
  14    5   58 1
  15    6   32 1
  16    7    8 2
  17    7    9 am
  18    9   18 1
  19    9   59 1
  20   10   11 1
  21   10   60 1
  22   10   61 1
  23   11   12 1
  24   11   62 1
  25   12   13 1
  26   12   15 1
  27   12   63 1
  28   13   14 2
  29   15   16 1
  30   15   17 1
  31   15   53 1
  32   16   64 1
  33   16   65 1
  34   16   66 1
  35   17   67 1
  36   17   68 1
  37   17   69 1
  38   18   19 1
  39   18   24 1
  40   18   25 1
  41   19   20 am
  42   19   21 2
  43   20   22 am
  44   20   70 1
  45   22   23 1
  46   22   28 2
  47   22   29 2
  48   23   26 1
  49   23   27 1
  50   23   71 1
  51   24   25 1
  52   24   30 1
  53   24   72 1
  54   25   73 1
  55   25   74 1
  56   26   27 1
  57   26   75 1
  58   26   76 1
  59   27   77 1
  60   27   78 1
  61   30   31 2
  62   30   79 1
  63   31   80 1
  64   31   81 1
  65   32   33 ar
  66   32   34 ar
  67   33   37 ar
  68   33   43 ar
  69   34   35 ar
  70   34   82 1
  71   35   36 ar
  72   35   38 1
  73   36   37 ar
  74   37   40 ar
  75   38   47 2
  76   38   39 1
  77   39   49 1
  78   40   41 ar
  79   40   44 1
  80   41   42 ar
  81   41   45 1
  82   42   43 ar
  83   42   83 1
  84   43   84 1
  85   44   85 1
  86   44   86 1
  87   44   87 1
  88   45   46 1
  89   46   88 1
  90   46   89 1
  91   46   90 1
  92   47   48 1
  93   48   49 2
  94   48   50 1
  95   49   91 1
  96   50   51 1
  97   50   52 1
  98   50   92 1
  99   51   93 1
 100   51   94 1
 101   51   95 1
 102   52   96 1
 103   52   97 1
 104   52   98 1
 105   53   99 1
 106   53  100 1
 107   53  101 1

#	End of record

