#	Name: ASD03540540
#	Creating user name:	WinNT
#	Creation time:	15. 06. 2019 20:43

#	Modifying user name:	WinNT
#	Modification time:	15. 06. 2019 20:43

#	Program:	/corina/corina34_cracker 3.40 0067  02.08.2006

@<TRIPOS>MOLECULE
ASD03540540
  58   61    0    0    0
SMALL
NO_CHARGES


@<TRIPOS>ATOM
   1 C1            -0.5271     0.0435    -1.4108 C.2     
   2 C2             0.0012    -0.0065    -0.0004 C.3     
   3 O3             0.1829    -0.2791    -2.3337 O.2     
   4 O4            -1.7883     0.4411    -1.6414 O.3     
   5 C5             1.4290    -0.4884    -0.0156 C.ar    
   6 C6             2.4636     0.4225    -0.1251 C.ar    
   7 C7             3.7732    -0.0161    -0.1398 C.ar    
   8 C8             4.0503    -1.3732    -0.0440 C.ar    
   9 C9             3.0094    -2.2854     0.0663 C.ar    
  10 C10            1.7021    -1.8402     0.0857 C.ar    
  11 N11            7.3198    -2.3635     1.1658 N.am    
  12 C12            6.0458    -1.9413     1.0989 C.2     
  13 N13            5.3779    -1.8214    -0.0591 N.am    
  14 C14            5.9617    -2.1252    -1.2388 C.2     
  15 C15            7.3592    -2.5942    -1.2250 C.ar    
  16 C16            8.0289    -2.9266    -2.3959 C.ar    
  17 C17            9.3504    -3.3653    -2.3241 C.ar    
  18 C18            9.9897    -3.4674    -1.0824 C.ar    
  19 C19            9.3306    -3.1409     0.0691 C.ar    
  20 C20            8.0139    -2.7016     0.0172 C.ar    
  21 O21            5.3507    -2.0150    -2.2842 O.2     
  22 O22            5.4735    -1.6547     2.1324 O.2     
  23 C23            7.9827    -2.4627     2.4685 C.3     
  24 C24           10.0766    -3.7230    -3.5589 C.2     
  25 N25           11.3541    -4.1472    -3.4905 N.am    
  26 O26            9.5222    -3.6350    -4.6373 O.2     
  27 C27           12.0746    -4.5021    -4.7156 C.3     
  28 C28           13.4732    -4.9414    -4.3664 C.ar    
  29 C29           13.7327    -6.2737    -4.1030 C.ar    
  30 C30           15.0139    -6.6789    -3.7826 C.ar    
  31 C31           16.0407    -5.7477    -3.7255 C.ar    
  32 C32           15.7778    -4.4115    -3.9903 C.ar    
  33 C33           14.4960    -4.0123    -4.3156 C.ar    
  34 O34           17.3019    -6.1438    -3.4101 O.3     
  35 C35           18.3090    -5.1308    -3.3699 C.3     
  36 H36           -0.0412     0.9901     0.4391 H       
  37 H37           -0.6069    -0.6907     0.5914 H       
  38 H38           -2.0822     0.4568    -2.5625 H       
  39 H39            2.2473     1.4780    -0.1996 H       
  40 H40            4.5807     0.6958    -0.2261 H       
  41 H41            3.2219    -3.3416     0.1410 H       
  42 H42            0.8921    -2.5489     0.1756 H       
  43 H43            7.5313    -2.8464    -3.3511 H       
  44 H44           11.0134    -3.8080    -1.0344 H       
  45 H45            9.8343    -3.2242     1.0209 H       
  46 H46            7.2907    -2.1555     3.2526 H       
  47 H47            8.2927    -3.4934     2.6409 H       
  48 H48            8.8579    -1.8132     2.4812 H       
  49 H49           11.7964    -4.2174    -2.6300 H       
  50 H50           11.5538    -5.3156    -5.2207 H       
  51 H51           12.1199    -3.6351    -5.3746 H       
  52 H52           12.9329    -6.9981    -4.1473 H       
  53 H53           15.2160    -7.7196    -3.5766 H       
  54 H54           16.5755    -3.6847    -3.9464 H       
  55 H55           14.2917    -2.9730    -4.5265 H       
  56 H56           18.3869    -4.6568    -4.3484 H       
  57 H57           18.0420    -4.3823    -2.6239 H       
  58 H58           19.2664    -5.5805    -3.1068 H       
@<TRIPOS>BOND
   1    1    2 1
   2    1    3 2
   3    1    4 1
   4    2    5 1
   5    2   36 1
   6    2   37 1
   7    4   38 1
   8    5    6 ar
   9    5   10 ar
  10    6    7 ar
  11    6   39 1
  12    7    8 ar
  13    7   40 1
  14    8    9 ar
  15    8   13 1
  16    9   10 ar
  17    9   41 1
  18   10   42 1
  19   11   12 am
  20   11   20 1
  21   11   23 1
  22   12   13 am
  23   12   22 2
  24   13   14 am
  25   14   15 1
  26   14   21 2
  27   15   16 ar
  28   15   20 ar
  29   16   17 ar
  30   16   43 1
  31   17   18 ar
  32   17   24 1
  33   18   19 ar
  34   18   44 1
  35   19   20 ar
  36   19   45 1
  37   23   46 1
  38   23   47 1
  39   23   48 1
  40   24   25 am
  41   24   26 2
  42   25   27 1
  43   25   49 1
  44   27   28 1
  45   27   50 1
  46   27   51 1
  47   28   29 ar
  48   28   33 ar
  49   29   30 ar
  50   29   52 1
  51   30   31 ar
  52   30   53 1
  53   31   32 ar
  54   31   34 1
  55   32   33 ar
  56   32   54 1
  57   33   55 1
  58   34   35 1
  59   35   56 1
  60   35   57 1
  61   35   58 1

#	End of record

