#	Name: ASD03430035
#	Creating user name:	WinNT
#	Creation time:	15. 06. 2019 20:40

#	Modifying user name:	WinNT
#	Modification time:	15. 06. 2019 20:40

#	Program:	/corina/corina34_cracker 3.40 0067  02.08.2006

@<TRIPOS>MOLECULE
ASD03430035
  47   52    0    0    0
SMALL
NO_CHARGES


@<TRIPOS>ATOM
   1 C1            -1.0479     1.5835     2.8354 C.ar    
   2 C2            -1.0153     0.3205     2.2644 C.ar    
   3 C3             0.0505    -0.0569     1.4750 C.ar    
   4 C4             1.1095     0.8172     1.2489 C.ar    
   5 C5             1.0714     2.0851     1.8201 C.ar    
   6 C6             0.0006     2.4679     2.6102 C.ar    
   7 O7             2.0681     0.2408     0.4686 O.3     
   8 C8             0.3640    -1.3167     0.7131 C.3     
   9 C9             1.5016    -0.8881    -0.2239 C.3     
  10 C10           -0.1173    -3.4776     1.3575 C.ar    
  11 C11            0.7746    -2.4422     1.6151 C.ar    
  12 C12           -0.8228    -1.8313    -0.0498 C.2     
  13 N13           -1.0378    -3.0907     0.3801 N.am    
  14 O14           -1.4626    -1.2314    -0.8876 O.2     
  15 C15            1.7830    -2.5984     2.5559 C.ar    
  16 C16            1.9043    -3.8032     3.2488 C.ar    
  17 C17            1.0196    -4.8315     2.9930 C.ar    
  18 C18            0.0167    -4.6754     2.0572 C.ar    
  19 C19           -2.1117    -3.9531    -0.1191 C.3     
  20 O20           -2.1116     1.9427     3.6059 O.3     
  21 C21           -1.9343     3.0798     4.4578 C.3     
  22 C22           -1.2709     4.1947     3.6379 C.3     
  23 O23           -0.0099     3.7125     3.1625 O.3     
  24 C24            2.7294    -1.4877     2.8234 C.2     
  25 C25            2.5454    -0.5892     3.8117 C.2     
  26 S26            3.8951     0.5424     3.7720 S.3     
  27 C27            4.5724    -0.2919     2.4429 C.2     
  28 N28            3.8330    -1.2945     2.1157 N.2     
  29 C29            5.8574     0.0889     1.7539 C.3     
  30 H30           -1.8270    -0.3701     2.4388 H       
  31 H31            1.8832     2.7760     1.6462 H       
  32 H32            1.1102    -0.5891    -1.1963 H       
  33 H33            2.2368    -1.6858    -0.3301 H       
  34 H34            2.6871    -3.9309     3.9818 H       
  35 H35            1.1129    -5.7648     3.5285 H       
  36 H36           -0.6691    -5.4875     1.8659 H       
  37 H37           -3.0050    -3.8098     0.4889 H       
  38 H38           -2.3323    -3.6960    -1.1551 H       
  39 H39           -1.7969    -4.9951    -0.0624 H       
  40 H40           -2.9032     3.4195     4.8239 H       
  41 H41           -1.2956     2.8126     5.2996 H       
  42 H42           -1.9060     4.4564     2.7916 H       
  43 H43           -1.1161     5.0713     4.2670 H       
  44 H44            1.7175    -0.5670     4.5049 H       
  45 H45            6.2333     1.0211     2.1755 H       
  46 H46            6.5956    -0.6997     1.9001 H       
  47 H47            5.6728     0.2207     0.6877 H       
@<TRIPOS>BOND
   1    1    2 ar
   2    1    6 ar
   3    1   20 1
   4    2    3 ar
   5    2   30 1
   6    3    4 ar
   7    3    8 1
   8    4    5 ar
   9    4    7 1
  10    5    6 ar
  11    5   31 1
  12    6   23 1
  13    7    9 1
  14    8    9 1
  15    8   11 1
  16    8   12 1
  17    9   32 1
  18    9   33 1
  19   10   11 ar
  20   10   13 1
  21   10   18 ar
  22   11   15 ar
  23   12   13 am
  24   12   14 2
  25   13   19 1
  26   15   16 ar
  27   15   24 1
  28   16   17 ar
  29   16   34 1
  30   17   18 ar
  31   17   35 1
  32   18   36 1
  33   19   37 1
  34   19   38 1
  35   19   39 1
  36   20   21 1
  37   21   22 1
  38   21   40 1
  39   21   41 1
  40   22   23 1
  41   22   42 1
  42   22   43 1
  43   24   25 2
  44   24   28 1
  45   25   26 1
  46   25   44 1
  47   26   27 1
  48   27   28 2
  49   27   29 1
  50   29   45 1
  51   29   46 1
  52   29   47 1

#	End of record

