#	Name: ASD05430640
#	Creating user name:	WinNT
#	Creation time:	15. 06. 2019 21:00

#	Modifying user name:	WinNT
#	Modification time:	15. 06. 2019 21:00

#	Program:	/corina/corina34_cracker 3.40 0067  02.08.2006

@<TRIPOS>MOLECULE
ASD05430640
  36   38    0    0    0
SMALL
NO_CHARGES


@<TRIPOS>ATOM
   1 C1            -0.0168     1.3907     0.0097 C.ar    
   2 C2             0.0021    -0.0041     0.0020 C.ar    
   3 C3             1.2137    -0.6728    -0.0132 C.ar    
   4 C4             2.4074     0.0328    -0.0203 C.ar    
   5 C5             2.4074     1.3994    -0.0130 C.ar    
   6 C6             1.1963     2.0963     0.0019 C.ar    
   7 C7             3.7120     2.1538    -0.0204 C.3     
   8 C8             4.5255     1.7780     1.2197 C.3     
   9 C9             4.5035     1.7915    -1.2786 C.3     
  10 N10           -1.2013    -0.7255     0.0101 N.pl3   
  11 C11           -2.2464    -0.5427     0.8578 C.2     
  12 C12           -1.5464    -1.7440    -0.8399 C.2     
  13 C13           -2.7795    -2.1501    -0.4818 C.2     
  14 N14           -3.1821    -1.4010     0.5553 N.2     
  15 C15           -3.5718    -3.2523    -1.1363 C.3     
  16 C16            0.8473     3.5199     0.0138 C.2     
  17 N17           -0.4475     3.6023     0.0266 N.2     
  18 O18           -1.0081     2.3047     0.0187 O.3     
  19 C19           -3.9854    -4.2793    -0.0803 C.3     
  20 H20            1.2295    -1.7526    -0.0191 H       
  21 H21            3.3454    -0.5024    -0.0315 H       
  22 H22            3.5121     3.2253    -0.0129 H       
  23 H23            5.4690     2.3237     1.2144 H       
  24 H24            3.9616     2.0362     2.1161 H       
  25 H25            4.7254     0.7066     1.2122 H       
  26 H26            3.9239     2.0592    -2.1621 H       
  27 H27            5.4470     2.3372    -1.2840 H       
  28 H28            4.7034     0.7200    -1.2861 H       
  29 H29           -2.2951     0.1902     1.6497 H       
  30 H30           -0.9450    -2.1437    -1.6430 H       
  31 H31           -4.4627    -2.8317    -1.6026 H       
  32 H32           -2.9593    -3.7384    -1.8957 H       
  33 H33            1.5405     4.3481     0.0125 H       
  34 H34           -4.5585    -5.0765    -0.5537 H       
  35 H35           -3.0945    -4.6999     0.3860 H       
  36 H36           -4.5979    -3.7932     0.6790 H       
@<TRIPOS>BOND
   1    1    2 ar
   2    1    6 ar
   3    1   18 1
   4    2    3 ar
   5    2   10 1
   6    3    4 ar
   7    3   20 1
   8    4    5 ar
   9    4   21 1
  10    5    6 ar
  11    5    7 1
  12    6   16 1
  13    7    8 1
  14    7    9 1
  15    7   22 1
  16    8   23 1
  17    8   24 1
  18    8   25 1
  19    9   26 1
  20    9   27 1
  21    9   28 1
  22   10   11 1
  23   10   12 1
  24   11   14 2
  25   11   29 1
  26   12   13 2
  27   12   30 1
  28   13   14 1
  29   13   15 1
  30   15   19 1
  31   15   31 1
  32   15   32 1
  33   16   17 2
  34   16   33 1
  35   17   18 1
  36   19   34 1
  37   19   35 1
  38   19   36 1

#	End of record

