#	Name: ASD03093008
#	Creating user name:	WinNT
#	Creation time:	15. 06. 2019 20:33

#	Modifying user name:	WinNT
#	Modification time:	15. 06. 2019 20:33

#	Program:	/corina/corina34_cracker 3.40 0067  02.08.2006

@<TRIPOS>MOLECULE
ASD03093008
  56   60    0    0    0
SMALL
NO_CHARGES


@<TRIPOS>ATOM
   1 C1            -0.0167     1.3768     0.0096 C.ar    
   2 C2             0.0021    -0.0041     0.0020 C.ar    
   3 C3             1.2094    -0.6776    -0.0133 C.ar    
   4 C4             2.3942     0.0319    -0.0209 C.ar    
   5 C5             2.3775     1.4167    -0.0132 C.ar    
   6 C6             1.1705     2.0900     0.0021 C.ar    
   7 C7             3.5184     2.4115    -0.0183 C.3     
   8 C8             2.8834     3.7521    -0.4447 C.3     
   9 C9             1.4177     3.5834     0.0084 C.3     
  10 N10            3.5180     4.8738     0.2519 N.am    
  11 C11            3.4997     6.1049    -0.2964 C.2     
  12 C12            4.1525     7.2587     0.4202 C.3     
  13 O13            2.9578     6.2840    -1.3666 O.2     
  14 N14            3.9968     8.4788    -0.3757 N.am    
  15 N15            4.9743     8.8055    -1.3161 N.2     
  16 C16            4.9083     9.8700    -2.0608 C.2     
  17 C17            3.7742    10.7815    -1.9297 C.ar    
  18 C18            2.7674    10.4764    -0.9844 C.ar    
  19 C19            2.9082     9.2547    -0.1835 C.2     
  20 C20            6.0005    10.1627    -3.0570 C.3     
  21 C21            7.1191     9.1299    -2.9057 C.3     
  22 C22            8.2279     9.4272    -3.9171 C.3     
  23 C23            7.6572     9.3568    -5.3349 C.3     
  24 C24            6.5386    10.3896    -5.4863 C.3     
  25 C25            5.4297    10.0923    -4.4748 C.3     
  26 C26            3.6462    11.9403    -2.6996 C.ar    
  27 N27            2.6020    12.7240    -2.5371 N.ar    
  28 C28            1.6448    12.4663    -1.6625 C.ar    
  29 C29            1.6846    11.3458    -0.8580 C.ar    
  30 O30            2.0659     8.9515     0.6421 O.2     
  31 F31            8.6711     9.6285    -6.2598 F       
  32 F32            7.1443     8.0762    -5.5681 F       
  33 H33           -0.9602     1.9023     0.0169 H       
  34 H34           -0.9255    -0.5573     0.0084 H       
  35 H35            1.2259    -1.7574    -0.0189 H       
  36 H36            3.3369    -0.4950    -0.0326 H       
  37 H37            3.9496     2.4976     0.9791 H       
  38 H38            4.2809     2.1089    -0.7360 H       
  39 H39            2.9424     3.8824    -1.5253 H       
  40 H40            0.7459     4.0809    -0.6911 H       
  41 H41            1.2838     3.9847     1.0130 H       
  42 H42            3.9514     4.7305     1.1078 H       
  43 H43            3.6799     7.3966     1.3927 H       
  44 H44            5.2129     7.0477     0.5581 H       
  45 H45            6.4001    11.1604    -2.8753 H       
  46 H46            7.5257     9.1801    -1.8956 H       
  47 H47            6.7195     8.1322    -3.0873 H       
  48 H48            8.6275    10.4249    -3.7354 H       
  49 H49            9.0248     8.6914    -3.8093 H       
  50 H50            6.9382    11.3873    -5.3046 H       
  51 H51            6.1320    10.3394    -6.4964 H       
  52 H52            5.0301     9.0946    -4.6565 H       
  53 H53            4.6328    10.8281    -4.5827 H       
  54 H54            4.4036    12.1925    -3.4271 H       
  55 H55            0.8122    13.1487    -1.5755 H       
  56 H56            0.8957    11.1468    -0.1477 H       
@<TRIPOS>BOND
   1    1    2 ar
   2    1    6 ar
   3    1   33 1
   4    2    3 ar
   5    2   34 1
   6    3    4 ar
   7    3   35 1
   8    4    5 ar
   9    4   36 1
  10    5    6 ar
  11    5    7 1
  12    6    9 1
  13    7    8 1
  14    7   37 1
  15    7   38 1
  16    8    9 1
  17    8   10 1
  18    8   39 1
  19    9   40 1
  20    9   41 1
  21   10   11 am
  22   10   42 1
  23   11   12 1
  24   11   13 2
  25   12   14 1
  26   12   43 1
  27   12   44 1
  28   14   15 1
  29   14   19 am
  30   15   16 2
  31   16   17 1
  32   16   20 1
  33   17   18 ar
  34   17   26 ar
  35   18   19 1
  36   18   29 ar
  37   19   30 2
  38   20   21 1
  39   20   25 1
  40   20   45 1
  41   21   22 1
  42   21   46 1
  43   21   47 1
  44   22   23 1
  45   22   48 1
  46   22   49 1
  47   23   24 1
  48   23   31 1
  49   23   32 1
  50   24   25 1
  51   24   50 1
  52   24   51 1
  53   25   52 1
  54   25   53 1
  55   26   27 ar
  56   26   54 1
  57   27   28 ar
  58   28   29 ar
  59   28   55 1
  60   29   56 1

#	End of record

