#	Name: ASD03731819
#	Creating user name:	WinNT
#	Creation time:	15. 06. 2019 20:46

#	Modifying user name:	WinNT
#	Modification time:	15. 06. 2019 20:46

#	Program:	/corina/corina34_cracker 3.40 0067  02.08.2006

@<TRIPOS>MOLECULE
ASD03731819
  33   34    0    0    0
SMALL
NO_CHARGES


@<TRIPOS>ATOM
   1 C1             0.0442     1.4462     0.5196 C.2     
   2 C2             0.0478    -0.0229     0.3773 C.ar    
   3 C3             1.2549    -0.7076     0.2105 C.ar    
   4 C4             1.2540    -2.0789     0.0785 C.ar    
   5 C5             0.0533    -2.7815     0.1106 C.ar    
   6 C6            -1.1482    -2.1034     0.2763 C.ar    
   7 C7            -1.1547    -0.7330     0.4147 C.ar    
   8 O8             1.0921     2.0623     0.4919 O.2     
   9 N9            -1.1211     2.1053     0.6747 N.am    
  10 S10           -1.1252     3.7536     0.8344 S.o2    
  11 O11           -2.4968     4.0862     1.0001 O.2     
  12 O12           -0.1800     4.0083     1.8645 O.2     
  13 C13           -0.5102     4.3643    -0.7591 C.3     
  14 O14            0.0558    -4.1322    -0.0206 O.3     
  15 C15           -1.1305    -4.7865     0.0914 C.ar    
  16 C16           -1.9497    -4.9381    -1.0209 C.ar    
  17 C17           -3.1559    -5.6042    -0.9031 C.ar    
  18 C18           -3.5461    -6.1182     0.3201 C.ar    
  19 C19           -2.7323    -5.9682     1.4273 C.ar    
  20 C20           -1.5229    -5.3088     1.3144 C.ar    
  21 F21           -1.5686    -4.4350    -2.2155 F       
  22 Cl22           2.7521    -2.9311    -0.1287 Cl      
  23 H23            2.1868    -0.1624     0.1848 H       
  24 H24           -2.0781    -2.6522     0.3004 H       
  25 H25           -2.0889    -0.2076     0.5475 H       
  26 H26           -1.9574     1.6142     0.6929 H       
  27 H27           -1.1742     4.0311    -1.5567 H       
  28 H28           -0.4794     5.4537    -0.7433 H       
  29 H29            0.4927     3.9750    -0.9348 H       
  30 H30           -3.7935    -5.7228    -1.7667 H       
  31 H31           -4.4887    -6.6375     0.4104 H       
  32 H32           -3.0401    -6.3704     2.3812 H       
  33 H33           -0.8859    -5.1965     2.1792 H       
@<TRIPOS>BOND
   1    1    2 1
   2    1    8 2
   3    1    9 am
   4    2    3 ar
   5    2    7 ar
   6    3    4 ar
   7    3   23 1
   8    4    5 ar
   9    4   22 1
  10    5    6 ar
  11    5   14 1
  12    6    7 ar
  13    6   24 1
  14    7   25 1
  15    9   10 am
  16    9   26 1
  17   10   11 2
  18   10   12 2
  19   10   13 1
  20   13   27 1
  21   13   28 1
  22   13   29 1
  23   14   15 1
  24   15   16 ar
  25   15   20 ar
  26   16   17 ar
  27   16   21 1
  28   17   18 ar
  29   17   30 1
  30   18   19 ar
  31   18   31 1
  32   19   20 ar
  33   19   32 1
  34   20   33 1

#	End of record

