#	Name: ASD01720133
#	Creating user name:	WinNT
#	Creation time:	15. 06. 2019 19:23

#	Modifying user name:	WinNT
#	Modification time:	15. 06. 2019 19:23

#	Program:	/corina/corina34_cracker 3.40 0067  02.08.2006

@<TRIPOS>MOLECULE
ASD01720133
  87   90    0    0    0
SMALL
NO_CHARGES


@<TRIPOS>ATOM
   1 C1             1.6404    -1.0310    -0.2739 C.ar    
   2 C2             2.0297    -2.3408    -0.4682 C.ar    
   3 C3             3.3698    -2.6457    -0.6187 C.ar    
   4 C4             4.3123    -1.6381    -0.5760 C.ar    
   5 C5             3.9220    -0.3214    -0.3833 C.ar    
   6 C6             2.5865    -0.0173    -0.2291 C.ar    
   7 C7             2.1138     1.3953    -0.0058 C.3     
   8 C8             4.9849     0.7468    -0.3551 C.3     
   9 C9             4.4241     2.0250     0.2689 C.3     
  10 N10            3.1535     2.3522    -0.3973 N.3     
  11 C11            5.4028     3.1544     0.0751 C.2     
  12 N12            6.4708     3.2678     0.8894 N.am    
  13 O13            5.2295     3.9613    -0.8136 O.2     
  14 C14            7.4222     4.3658     0.7010 C.3     
  15 C15            8.5324     4.2640     1.7489 C.3     
  16 C16            9.5261     5.4107     1.5522 C.3     
  17 C17           10.6363     5.3089     2.6000 C.3     
  18 C18           11.6299     6.4556     2.4033 C.3     
  19 C19           12.6542     6.4278     3.5083 C.2     
  20 N20           12.3020     6.3030     1.1105 N.am    
  21 N21           12.3542     6.9401     4.7183 N.am    
  22 O22           13.7485     5.9445     3.3088 O.2     
  23 C23           13.3500     6.9131     5.7925 C.3     
  24 C24           12.7598     7.5522     7.0511 C.3     
  25 C25           11.6123     6.7124     7.5501 C.ar    
  26 C26           13.8217     7.6359     8.1172 C.ar    
  27 C27           14.5439     6.5092     8.4633 C.ar    
  28 C28           15.5180     6.5860     9.4412 C.ar    
  29 C29           15.7701     7.7896    10.0726 C.ar    
  30 C30           15.0484     8.9165     9.7259 C.ar    
  31 C31           14.0774     8.8407     8.7449 C.ar    
  32 C32           10.7356     4.5876     8.2205 C.ar    
  33 C33           11.7883     5.3579     7.7628 C.ar    
  34 C34           10.3852     7.2976     7.8004 C.ar    
  35 C35            9.3325     6.5273     8.2580 C.ar    
  36 C36            9.5068     5.1717     8.4649 C.ar    
  37 C37           13.0272     5.1962     0.8545 C.2     
  38 O38           13.1236     4.3249     1.6959 O.2     
  39 O39           13.6449     5.0559    -0.3336 O.3     
  40 C40           14.4084     3.8383    -0.5399 C.3     
  41 C41           13.4818     2.6275    -0.4129 C.3     
  42 C42           15.0328     3.8584    -1.9366 C.3     
  43 C43           15.5153     3.7460     0.5123 C.3     
  44 H44            0.5930    -0.7933    -0.1605 H       
  45 H45            1.2889    -3.1260    -0.5023 H       
  46 H46            3.6785    -3.6697    -0.7690 H       
  47 H47            5.3591    -1.8764    -0.6930 H       
  48 H48            1.2177     1.5735    -0.6002 H       
  49 H49            1.8760     1.5331     1.0490 H       
  50 H50            5.8327     0.3981     0.2345 H       
  51 H51            5.3152     0.9556    -1.3726 H       
  52 H52            4.2494     1.8667     1.3331 H       
  53 H53            3.2659     2.3739    -1.3998 H       
  54 H54            6.6095     2.6225     1.6002 H       
  55 H55            7.8572     4.3025    -0.2964 H       
  56 H56            6.9043     5.3184     0.8118 H       
  57 H57            8.0975     4.3272     2.7463 H       
  58 H58            9.0504     3.3113     1.6381 H       
  59 H59            9.9610     5.3474     0.5547 H       
  60 H60            9.0081     6.3633     1.6630 H       
  61 H61           10.2014     5.3721     3.5975 H       
  62 H62           11.1543     4.3562     2.4892 H       
  63 H63           11.0969     7.4061     2.4257 H       
  64 H64           12.2250     6.9985     0.4388 H       
  65 H65           11.4790     7.3267     4.8778 H       
  66 H66           13.6272     5.8806     6.0051 H       
  67 H67           14.2341     7.4702     5.4825 H       
  68 H68           12.4013     8.5543     6.8159 H       
  69 H69           14.3470     5.5689     7.9700 H       
  70 H70           16.0817     5.7056     9.7122 H       
  71 H71           16.5305     7.8494    10.8372 H       
  72 H72           15.2452     9.8568    10.2194 H       
  73 H73           13.5162     9.7219     8.4714 H       
  74 H74           10.8730     3.5292     8.3860 H       
  75 H75           12.7481     4.9014     7.5711 H       
  76 H76           10.2490     8.3567     7.6388 H       
  77 H77            8.3740     6.9847     8.4543 H       
  78 H78            8.6844     4.5699     8.8225 H       
  79 H79           12.6932     2.6933    -1.1625 H       
  80 H80           14.0550     1.7134    -0.5678 H       
  81 H81           13.0370     2.6132     0.5821 H       
  82 H82           15.6930     4.7210    -2.0271 H       
  83 H83           15.6060     2.9443    -2.0915 H       
  84 H84           14.2442     3.9241    -2.6862 H       
  85 H85           15.0705     3.7317     1.5073 H       
  86 H86           16.0886     2.8319     0.3574 H       
  87 H87           16.1755     4.6086     0.4218 H       
@<TRIPOS>BOND
   1    1    2 ar
   2    1    6 ar
   3    1   44 1
   4    2    3 ar
   5    2   45 1
   6    3    4 ar
   7    3   46 1
   8    4    5 ar
   9    4   47 1
  10    5    6 ar
  11    5    8 1
  12    6    7 1
  13    7   10 1
  14    7   48 1
  15    7   49 1
  16    8    9 1
  17    8   50 1
  18    8   51 1
  19    9   10 1
  20    9   11 1
  21    9   52 1
  22   10   53 1
  23   11   12 am
  24   11   13 2
  25   12   14 1
  26   12   54 1
  27   14   15 1
  28   14   55 1
  29   14   56 1
  30   15   16 1
  31   15   57 1
  32   15   58 1
  33   16   17 1
  34   16   59 1
  35   16   60 1
  36   17   18 1
  37   17   61 1
  38   17   62 1
  39   18   19 1
  40   18   20 1
  41   18   63 1
  42   19   21 am
  43   19   22 2
  44   20   37 am
  45   20   64 1
  46   21   23 1
  47   21   65 1
  48   23   24 1
  49   23   66 1
  50   23   67 1
  51   24   25 1
  52   24   26 1
  53   24   68 1
  54   25   34 ar
  55   25   33 ar
  56   26   27 ar
  57   26   31 ar
  58   27   28 ar
  59   27   69 1
  60   28   29 ar
  61   28   70 1
  62   29   30 ar
  63   29   71 1
  64   30   31 ar
  65   30   72 1
  66   31   73 1
  67   32   33 ar
  68   32   36 ar
  69   32   74 1
  70   33   75 1
  71   34   35 ar
  72   34   76 1
  73   35   36 ar
  74   35   77 1
  75   36   78 1
  76   37   38 2
  77   37   39 1
  78   39   40 1
  79   40   41 1
  80   40   42 1
  81   40   43 1
  82   41   79 1
  83   41   80 1
  84   41   81 1
  85   42   82 1
  86   42   83 1
  87   42   84 1
  88   43   85 1
  89   43   86 1
  90   43   87 1

#	End of record

