#	Name: ASD01811067
#	Creating user name:	WinNT
#	Creation time:	15. 06. 2019 19:26

#	Modifying user name:	WinNT
#	Modification time:	15. 06. 2019 19:26

#	Program:	/corina/corina34_cracker 3.40 0067  02.08.2006

@<TRIPOS>MOLECULE
ASD01811067
  41   44    0    0    0
SMALL
NO_CHARGES


@<TRIPOS>ATOM
   1 C1            -0.0168     1.3905     0.0097 C.ar    
   2 C2             0.0021    -0.0041     0.0020 C.ar    
   3 C3            -1.2631    -0.8069    -0.0058 C.3     
   4 C4            -2.4668    -0.0179     0.3941 C.2     
   5 C5            -2.5150     1.3235     0.4103 C.2     
   6 C6            -1.3136     2.1046     0.0382 C.2     
   7 C7            -1.4847    -1.3602    -1.4149 C.3     
   8 C8            -2.6855    -2.2707    -1.4140 C.ar    
   9 C9            -3.9429    -1.7547    -1.6686 C.ar    
  10 C10           -5.0455    -2.5867    -1.6680 C.ar    
  11 C11           -4.8902    -3.9424    -1.4119 C.ar    
  12 C12           -3.6264    -4.4576    -1.1571 C.ar    
  13 C13           -2.5270    -3.6215    -1.1642 C.ar    
  14 N14           -6.0073    -4.7892    -1.4101 N.pl3   
  15 O15           -1.3890     3.2867    -0.2334 O.2     
  16 C16           -3.7597     2.0162     0.7967 C.2     
  17 O17           -4.7439     1.3723     1.1011 O.2     
  18 O18           -3.8044     3.3626     0.8119 O.3     
  19 C19            1.1909     2.0872     0.0019 C.ar    
  20 C20            2.3707     1.3652    -0.0068 C.ar    
  21 N21            2.3518     0.0469    -0.0071 N.ar    
  22 C22            1.2301    -0.6443    -0.0029 C.ar    
  23 C23           -5.9960    -6.1212    -1.1769 C.2     
  24 C24           -7.2710    -6.5656    -1.2658 C.2     
  25 C25           -8.0893    -5.4702    -1.5630 C.2     
  26 N26           -7.3339    -4.4045    -1.6437 N.2     
  27 H27           -1.1498    -1.6448     0.6822 H       
  28 H28           -3.3533    -0.5602     0.6880 H       
  29 H29           -1.6549    -0.5351    -2.1066 H       
  30 H30           -0.6039    -1.9208    -1.7279 H       
  31 H31           -4.0631    -0.7001    -1.8677 H       
  32 H32           -6.0274    -2.1830    -1.8662 H       
  33 H33           -3.5026    -5.5117    -0.9572 H       
  34 H34           -1.5436    -4.0217    -0.9661 H       
  35 H35           -4.6415     3.7712     1.0717 H       
  36 H36            1.2049     3.1671     0.0023 H       
  37 H37            3.3166     1.8864    -0.0138 H       
  38 H38            1.2688    -1.7236    -0.0033 H       
  39 H39           -5.1255    -6.7224    -0.9595 H       
  40 H40           -7.5991    -7.5857    -1.1311 H       
  41 H41           -9.1604    -5.4985    -1.6980 H       
@<TRIPOS>BOND
   1    1    2 ar
   2    1   19 ar
   3    1    6 1
   4    2    3 1
   5    2   22 ar
   6    3    4 1
   7    3    7 1
   8    3   27 1
   9    4    5 2
  10    4   28 1
  11    5    6 1
  12    5   16 1
  13    6   15 2
  14    7    8 1
  15    7   29 1
  16    7   30 1
  17    8    9 ar
  18    8   13 ar
  19    9   10 ar
  20    9   31 1
  21   10   11 ar
  22   10   32 1
  23   11   12 ar
  24   11   14 1
  25   12   13 ar
  26   12   33 1
  27   13   34 1
  28   14   23 1
  29   14   26 1
  30   16   17 2
  31   16   18 1
  32   18   35 1
  33   19   20 ar
  34   19   36 1
  35   20   21 ar
  36   20   37 1
  37   21   22 ar
  38   22   38 1
  39   23   24 2
  40   23   39 1
  41   24   25 1
  42   24   40 1
  43   25   26 2
  44   25   41 1

#	End of record

