#	Name: ASD01911928
#	Creating user name:	WinNT
#	Creation time:	15. 06. 2019 19:58

#	Modifying user name:	WinNT
#	Modification time:	15. 06. 2019 19:58

#	Program:	/corina/corina34_cracker 3.40 0067  02.08.2006

@<TRIPOS>MOLECULE
ASD01911928
  36   38    0    0    0
SMALL
NO_CHARGES


@<TRIPOS>ATOM
   1 C1            -1.0485    -0.4840    -2.0514 C.ar    
   2 C2            -1.0614     0.0600    -0.7711 C.ar    
   3 C3            -1.0256     1.4447    -0.6428 C.ar    
   4 N4            -0.9808     2.1897    -1.7350 N.ar    
   5 C5            -0.9700     1.6364    -2.9311 C.ar    
   6 N6            -1.0030     0.3290    -3.0939 N.ar    
   7 O7            -1.1083    -0.7408     0.3260 O.3     
   8 C8            -1.1451    -2.0853     0.1334 C.ar    
   9 C9             0.0139    -2.7701    -0.2047 C.ar    
  10 C10           -0.0223    -4.1396    -0.4007 C.ar    
  11 C11           -1.2140    -4.8291    -0.2606 C.ar    
  12 C12           -2.3755    -4.1473     0.0776 C.ar    
  13 C13           -2.3390    -2.7743     0.2800 C.ar    
  14 N14           -3.5798    -4.8438     0.2193 N.am    
  15 C15           -3.5754    -6.1114     0.6771 C.2     
  16 C16           -4.8341    -6.8828     0.7278 C.ar    
  17 O17           -2.5354    -6.6199     1.0484 O.2     
  18 C18           -6.0303    -6.2989     0.3011 C.ar    
  19 F19            1.1071    -4.8041    -0.7298 F       
  20 C20           -7.2075    -7.0160     0.3475 C.ar    
  21 C21           -7.2134    -8.3183     0.8164 C.ar    
  22 C22           -6.0215    -8.9148     1.2469 C.ar    
  23 C23           -4.8294    -8.1955     1.1956 C.ar    
  24 C24           -6.0271   -10.2618     1.7329 C.1     
  25 F25           -8.3703    -9.0147     0.8595 F       
  26 N26           -6.0317   -11.3303     2.1186 N.1     
  27 H27           -1.0709    -1.5546    -2.1922 H       
  28 H28           -1.0345     1.9049     0.3342 H       
  29 H29           -0.9335     2.2728    -3.8030 H       
  30 H30            0.9447    -2.2337    -0.3153 H       
  31 H31           -1.2407    -5.8977    -0.4146 H       
  32 H32           -3.2413    -2.2425     0.5434 H       
  33 H33           -4.4184    -4.4146    -0.0119 H       
  34 H34           -6.0328    -5.2831    -0.0656 H       
  35 H35           -8.1286    -6.5593     0.0168 H       
  36 H36           -3.9072    -8.6501     1.5261 H       
@<TRIPOS>BOND
   1    1    2 ar
   2    1    6 ar
   3    1   27 1
   4    2    3 ar
   5    2    7 1
   6    3    4 ar
   7    3   28 1
   8    4    5 ar
   9    5    6 ar
  10    5   29 1
  11    7    8 1
  12    8    9 ar
  13    8   13 ar
  14    9   10 ar
  15    9   30 1
  16   10   11 ar
  17   10   19 1
  18   11   12 ar
  19   11   31 1
  20   12   13 ar
  21   12   14 1
  22   13   32 1
  23   14   15 am
  24   14   33 1
  25   15   16 1
  26   15   17 2
  27   16   18 ar
  28   16   23 ar
  29   18   20 ar
  30   18   34 1
  31   20   21 ar
  32   20   35 1
  33   21   22 ar
  34   21   25 1
  35   22   23 ar
  36   22   24 1
  37   23   36 1
  38   24   26 3

#	End of record

