#	Name: ASD01913602
#	Creating user name:	WinNT
#	Creation time:	15. 06. 2019 20:01

#	Modifying user name:	WinNT
#	Modification time:	15. 06. 2019 20:01

#	Program:	/corina/corina34_cracker 3.40 0067  02.08.2006

@<TRIPOS>MOLECULE
ASD01913602
  34   36    0    0    0
SMALL
NO_CHARGES


@<TRIPOS>ATOM
   1 C1            -2.9828     0.0703    -1.3176 C.ar    
   2 C2            -2.3933    -0.1638    -0.0794 C.ar    
   3 C3            -3.1041     0.1825     1.0651 C.ar    
   4 N4            -4.3067     0.7183     0.9364 N.ar    
   5 C5            -4.8313     0.9244    -0.2549 C.ar    
   6 N6            -4.1896     0.6100    -1.3622 N.ar    
   7 C7            -1.0661    -2.0680     0.1060 C.ar    
   8 C8             0.1633    -2.6891     0.3081 C.ar    
   9 C9             0.2167    -4.0680     0.4073 C.ar    
  10 N10           -0.8751    -4.7965     0.3134 N.ar    
  11 C11           -2.0689    -4.2465     0.1207 C.ar    
  12 C12           -2.2033    -2.8665     0.0109 C.ar    
  13 C13           -3.2677    -5.1108     0.0219 C.2     
  14 N14           -3.1445    -6.4488     0.1275 N.am    
  15 O15           -1.1550    -0.7170     0.0097 O.3     
  16 O16           -4.3624    -4.6135    -0.1543 O.2     
  17 C17           -4.2677    -7.2586     0.0349 C.2     
  18 S18           -5.9131    -6.6886    -0.2187 S.3     
  19 C19           -6.4963    -8.2956    -0.1870 C.2     
  20 C20           -5.4614    -9.1394     0.0052 C.2     
  21 N21           -4.2666    -8.5514     0.1163 N.2     
  22 C22           -5.6347   -10.5992     0.0807 C.2     
  23 N23           -4.5648   -11.3957     0.2743 N.am    
  24 O24           -6.7435   -11.0867    -0.0316 O.2     
  25 H25           -2.4608    -0.1809    -2.2291 H       
  26 H26           -2.6804     0.0161     2.0445 H       
  27 H27           -5.8154     1.3637    -0.3257 H       
  28 H28            1.0656    -2.1008     0.3863 H       
  29 H29            1.1686    -4.5536     0.5638 H       
  30 H30           -3.1746    -2.4210    -0.1458 H       
  31 H31           -2.2707    -6.8457     0.2682 H       
  32 H32           -7.5293    -8.5887    -0.3025 H       
  33 H33           -3.6806   -11.0069     0.3638 H       
  34 H34           -4.6790   -12.3576     0.3240 H       
@<TRIPOS>BOND
   1    1    2 ar
   2    1    6 ar
   3    1   25 1
   4    2    3 ar
   5    2   15 1
   6    3    4 ar
   7    3   26 1
   8    4    5 ar
   9    5    6 ar
  10    5   27 1
  11    7    8 ar
  12    7   12 ar
  13    7   15 1
  14    8    9 ar
  15    8   28 1
  16    9   10 ar
  17    9   29 1
  18   10   11 ar
  19   11   12 ar
  20   11   13 1
  21   12   30 1
  22   13   14 am
  23   13   16 2
  24   14   17 1
  25   14   31 1
  26   17   18 1
  27   17   21 2
  28   18   19 1
  29   19   20 2
  30   19   32 1
  31   20   21 1
  32   20   22 1
  33   22   23 am
  34   22   24 2
  35   23   33 1
  36   23   34 1

#	End of record

