#	Name: ASD01870253
#	Creating user name:	WinNT
#	Creation time:	15. 06. 2019 19:38

#	Modifying user name:	WinNT
#	Modification time:	15. 06. 2019 19:38

#	Program:	/corina/corina34_cracker 3.40 0067  02.08.2006

@<TRIPOS>MOLECULE
ASD01870253
  62   66    0    0    0
SMALL
NO_CHARGES


@<TRIPOS>ATOM
   1 C1             0.2236     1.1376    -0.1917 C.ar    
   2 C2             0.3262    -0.2513    -0.1847 C.ar    
   3 C3             1.5425    -0.8669    -0.1751 C.ar    
   4 C4             2.7101    -0.0920    -0.1725 C.ar    
   5 C5             2.6054     1.3252    -0.1802 C.ar    
   6 C6             1.3371     1.9235    -0.1895 C.ar    
   7 C7             3.9920    -0.6726    -0.1631 C.ar    
   8 N8             5.0614     0.0793    -0.1610 N.ar    
   9 C9             5.0089     1.4184    -0.1680 C.ar    
  10 C10            3.7892     2.0739    -0.1779 C.ar    
  11 C11            6.0793     2.4392    -0.1678 C.2     
  12 N12            5.5484     3.6736    -0.1771 N.am    
  13 C13            4.0860     3.5509    -0.1842 C.3     
  14 C14            6.3022     4.9298    -0.1788 C.3     
  15 C15            7.1752     5.0024     1.0756 C.3     
  16 C16            8.1496     3.8229     1.0878 C.3     
  17 C17            9.0383     3.8827    -0.1563 C.3     
  18 C18            8.1653     3.8101    -1.4106 C.3     
  19 C19            7.1909     4.9896    -1.4228 C.3     
  20 C20            4.1331    -2.1730    -0.1549 C.3     
  21 C21            4.1873    -2.6802    -1.5729 C.ar    
  22 C22            5.4049    -2.8004    -2.2168 C.ar    
  23 C23            5.4573    -3.2651    -3.5167 C.ar    
  24 C24            4.2868    -3.6114    -4.1760 C.ar    
  25 C25            3.0663    -3.4900    -3.5277 C.ar    
  26 C26            3.0198    -3.0301    -2.2258 C.ar    
  27 O27            7.2702     2.1960    -0.1602 O.2     
  28 O28            6.3451     4.9466     2.2375 O.3     
  29 C29            3.7535     5.7079    -1.4004 C.3     
  30 C30            3.5098     4.1981    -1.4451 C.3     
  31 O31            4.3357    -4.0685    -5.4549 O.3     
  32 C32            3.0914    -4.4061    -6.0712 C.3     
  33 H33           -0.7529     1.5988    -0.2036 H       
  34 H34           -0.5724    -0.8504    -0.1867 H       
  35 H35            1.6058    -1.9450    -0.1690 H       
  36 H36            1.2434     2.9994    -0.1957 H       
  37 H37            3.6661     4.0215     0.7048 H       
  38 H38            5.6079     5.7701    -0.1875 H       
  39 H39            7.7360     5.9371     1.0743 H       
  40 H40            8.7716     3.8747     1.9814 H       
  41 H41            7.5888     2.8883     1.0890 H       
  42 H42            9.5992     4.8174    -0.1575 H       
  43 H43            9.7325     3.0425    -0.1476 H       
  44 H44            8.7984     3.8527    -2.2969 H       
  45 H45            7.6045     2.8755    -1.4094 H       
  46 H46            6.5689     4.9378    -2.3165 H       
  47 H47            7.7517     5.9242    -1.4241 H       
  48 H48            5.0505    -2.4488     0.3650 H       
  49 H49            3.2784    -2.6155     0.3569 H       
  50 H50            6.3158    -2.5303    -1.7032 H       
  51 H51            6.4087    -3.3584    -4.0194 H       
  52 H52            2.1538    -3.7590    -4.0388 H       
  53 H53            2.0699    -2.9354    -1.7207 H       
  54 H54            6.8327     4.9879     3.0715 H       
  55 H55            3.1492     6.1963    -2.1648 H       
  56 H56            3.4769     6.0917    -0.4184 H       
  57 H57            4.8082     5.9113    -1.5861 H       
  58 H58            3.9970     3.7773    -2.3246 H       
  59 H59            2.4383     4.0044    -1.4957 H       
  60 H60            2.6036    -5.1938    -5.4971 H       
  61 H61            2.4491    -3.5259    -6.0990 H       
  62 H62            3.2725    -4.7561    -7.0874 H       
@<TRIPOS>BOND
   1    1    2 ar
   2    1    6 ar
   3    1   33 1
   4    2    3 ar
   5    2   34 1
   6    3    4 ar
   7    3   35 1
   8    4    5 ar
   9    4    7 ar
  10    5    6 ar
  11    5   10 ar
  12    6   36 1
  13    7    8 ar
  14    7   20 1
  15    8    9 ar
  16    9   10 ar
  17    9   11 1
  18   10   13 1
  19   11   12 am
  20   11   27 2
  21   12   13 1
  22   12   14 1
  23   13   30 1
  24   13   37 1
  25   14   15 1
  26   14   19 1
  27   14   38 1
  28   15   16 1
  29   15   28 1
  30   15   39 1
  31   16   17 1
  32   16   40 1
  33   16   41 1
  34   17   18 1
  35   17   42 1
  36   17   43 1
  37   18   19 1
  38   18   44 1
  39   18   45 1
  40   19   46 1
  41   19   47 1
  42   20   21 1
  43   20   48 1
  44   20   49 1
  45   21   22 ar
  46   21   26 ar
  47   22   23 ar
  48   22   50 1
  49   23   24 ar
  50   23   51 1
  51   24   25 ar
  52   24   31 1
  53   25   26 ar
  54   25   52 1
  55   26   53 1
  56   28   54 1
  57   29   30 1
  58   29   55 1
  59   29   56 1
  60   29   57 1
  61   30   58 1
  62   30   59 1
  63   31   32 1
  64   32   60 1
  65   32   61 1
  66   32   62 1

#	End of record

