#	Name: ASD00310279
#	Creating user name:	WinNT
#	Creation time:	15. 06. 2019 18:34

#	Modifying user name:	WinNT
#	Modification time:	15. 06. 2019 18:34

#	Program:	/corina/corina34_cracker 3.40 0067  02.08.2006

@<TRIPOS>MOLECULE
ASD00310279
  53   56    0    0    0
SMALL
NO_CHARGES


@<TRIPOS>ATOM
   1 N1             0.3173     1.5202    -2.2317 N.pl3   
   2 C2             0.2932     0.1691    -2.1454 C.2     
   3 C3             1.5460    -0.2988    -1.8742 C.2     
   4 C4             2.4232     0.8843    -1.7858 C.ar    
   5 C5             3.7802     1.0619    -1.5380 C.ar    
   6 C6             4.3124     2.3448    -1.5224 C.ar    
   7 C7             3.4849     3.4488    -1.7550 C.ar    
   8 C8             2.1419     3.2753    -2.0004 C.ar    
   9 C9             1.5954     1.9947    -2.0189 C.ar    
  10 C10            1.9424    -1.7011    -1.7040 C.2     
  11 O11            3.1011    -1.9805    -1.4630 O.2     
  12 O12            1.0219    -2.6802    -1.8149 O.3     
  13 C13            5.7586     2.5445    -1.2585 C.ar    
  14 C14            6.5197     3.3441    -2.1093 C.ar    
  15 C15            7.8639     3.5279    -1.8614 C.ar    
  16 C16            8.4590     2.9170    -0.7660 C.ar    
  17 C17            7.7036     2.1197     0.0830 C.ar    
  18 C18            6.3575     1.9376    -0.1560 C.ar    
  19 O19            9.7838     3.0996    -0.5246 O.3     
  20 C20           10.3313     2.4418     0.6197 C.3     
  21 C21           11.8234     2.7628     0.7272 C.3     
  22 N22           12.0002     4.2071     0.9293 N.3     
  23 C23           13.4169     4.5410     1.1321 C.3     
  24 C24           13.5674     6.0588     1.2590 C.3     
  25 N25           12.7505     6.5372     2.3830 N.3     
  26 C26           11.3338     6.2033     2.1802 C.3     
  27 C27           11.1832     4.6855     2.0533 C.3     
  28 Cl28           4.1571     5.0492    -1.7334 Cl      
  29 C29            1.4854    -4.0444    -1.6344 C.3     
  30 H30           -0.4548     2.0762    -2.4206 H       
  31 H31           -0.5856    -0.4459    -2.2720 H       
  32 H32            4.4161     0.2076    -1.3585 H       
  33 H33            1.5109     4.1335    -2.1785 H       
  34 H34            6.0575     3.8190    -2.9621 H       
  35 H35            8.4543     4.1473    -2.5204 H       
  36 H36            8.1695     1.6452     0.9340 H       
  37 H37            5.7693     1.3210     0.5075 H       
  38 H38            9.8195     2.7883     1.5176 H       
  39 H39           10.1978     1.3647     0.5182 H       
  40 H40           12.2514     2.2227     1.5718 H       
  41 H41           12.3272     2.4600    -0.1907 H       
  42 H42           13.7765     4.0624     2.0430 H       
  43 H43           13.9992     4.1877     0.2810 H       
  44 H44           14.6136     6.3067     1.4384 H       
  45 H45           13.2332     6.5356     0.3376 H       
  46 H46           13.0876     6.1663     3.2587 H       
  47 H47           10.7515     6.5566     3.0312 H       
  48 H48           10.9741     6.6818     1.2693 H       
  49 H49           10.1371     4.4375     1.8739 H       
  50 H50           11.5175     4.2086     2.9747 H       
  51 H51            0.6469    -4.7312    -1.7492 H       
  52 H52            2.2460    -4.2715    -2.3814 H       
  53 H53            1.9113    -4.1544    -0.6371 H       
@<TRIPOS>BOND
   1    1    2 1
   2    1    9 1
   3    1   30 1
   4    2    3 2
   5    2   31 1
   6    3    4 1
   7    3   10 1
   8    4    5 ar
   9    4    9 ar
  10    5    6 ar
  11    5   32 1
  12    6    7 ar
  13    6   13 1
  14    7    8 ar
  15    7   28 1
  16    8    9 ar
  17    8   33 1
  18   10   11 2
  19   10   12 1
  20   12   29 1
  21   13   14 ar
  22   13   18 ar
  23   14   15 ar
  24   14   34 1
  25   15   16 ar
  26   15   35 1
  27   16   17 ar
  28   16   19 1
  29   17   18 ar
  30   17   36 1
  31   18   37 1
  32   19   20 1
  33   20   21 1
  34   20   38 1
  35   20   39 1
  36   21   22 1
  37   21   40 1
  38   21   41 1
  39   22   23 1
  40   22   27 1
  41   23   24 1
  42   23   42 1
  43   23   43 1
  44   24   25 1
  45   24   44 1
  46   24   45 1
  47   25   26 1
  48   25   46 1
  49   26   27 1
  50   26   47 1
  51   26   48 1
  52   27   49 1
  53   27   50 1
  54   29   51 1
  55   29   52 1
  56   29   53 1

#	End of record

