#	Name: ASD03330403
#	Creating user name:	WinNT
#	Creation time:	15. 06. 2019 20:37

#	Modifying user name:	WinNT
#	Modification time:	15. 06. 2019 20:37

#	Program:	/corina/corina34_cracker 3.40 0067  02.08.2006

@<TRIPOS>MOLECULE
ASD03330403
  65   67    0    0    0
SMALL
NO_CHARGES


@<TRIPOS>ATOM
   1 C1            -0.1500     0.0110     0.0069 C.3     
   2 N2            -0.2352    -1.3965    -0.4113 N.am    
   3 C3             0.4021    -1.7805    -1.6853 C.3     
   4 C4             1.7421    -1.0880    -1.7328 C.2     
   5 N5             2.1299    -0.1213    -0.8634 N.pl3   
   6 C6             1.3180     0.3796     0.2482 C.3     
   7 C7             2.7633    -1.2843    -2.6052 C.2     
   8 N8             3.7595    -0.4349    -2.2668 N.2     
   9 C9             3.3852     0.2682    -1.2226 C.2     
  10 C10            4.1917     1.3099    -0.5493 C.ar    
  11 C11            5.3176     1.8405    -1.1795 C.ar    
  12 C12            2.7830    -2.2490    -3.7189 C.2     
  13 O13            1.8196    -2.9629    -3.9222 O.2     
  14 C14            3.8883    -3.2993    -5.6196 C.3     
  15 N15            3.8687    -2.3402    -4.5123 N.am    
  16 C16           -0.8758    -2.3083     0.3468 C.2     
  17 O17           -1.0221    -3.4411    -0.0611 O.2     
  18 C18            6.0653     2.8121    -0.5465 C.ar    
  19 C19            5.7006     3.2602     0.7105 C.ar    
  20 C20            4.5852     2.7381     1.3408 C.ar    
  21 C21            3.8262     1.7699     0.7161 C.ar    
  22 C22           -1.4104    -1.9203     1.7014 C.3     
  23 C23           -2.6715    -1.0716     1.5280 C.3     
  24 C24            3.9508    -1.3783    -7.2158 C.3     
  25 C25            3.2246    -2.6737    -6.8480 C.3     
  26 C26            3.3002    -3.6518    -8.0221 C.3     
  27 C27            5.3146    -3.6588    -5.9476 C.2     
  28 N28            5.5855    -4.7936    -6.6224 N.am    
  29 C29            1.7591    -2.3656    -6.5345 C.3     
  30 O30            6.2187    -2.9269    -5.6043 O.2     
  31 C31            6.9754    -5.1977    -6.8479 C.3     
  32 C32           -1.7504    -3.1826     2.4962 C.3     
  33 H33           -0.5614     0.6486    -0.7757 H       
  34 H34           -0.7167     0.1521     0.9272 H       
  35 H35            0.5403    -2.8611    -1.7215 H       
  36 H36           -0.2148    -1.4550    -2.5229 H       
  37 H37            1.4157     1.4634     0.3110 H       
  38 H38            1.6583    -0.0720     1.1801 H       
  39 H39            5.6036     1.4912    -2.1607 H       
  40 H40            3.3442    -4.1986    -5.3310 H       
  41 H41            4.6371    -1.7709    -4.3502 H       
  42 H42            6.9373     3.2234    -1.0332 H       
  43 H43            6.2893     4.0207     1.2020 H       
  44 H44            4.3056     3.0921     2.3221 H       
  45 H45            2.9557     1.3630     1.2091 H       
  46 H46           -0.6562    -1.3449     2.2384 H       
  47 H47           -3.0359    -0.7582     2.5063 H       
  48 H48           -2.4379    -0.1919     0.9284 H       
  49 H49           -3.4393    -1.6602     1.0257 H       
  50 H50            4.9948    -1.5978    -7.4392 H       
  51 H51            3.4780    -0.9326    -8.0910 H       
  52 H52            3.8970    -0.6815    -6.3793 H       
  53 H53            4.3441    -3.8757    -8.2418 H       
  54 H54            2.7780    -4.5726    -7.7622 H       
  55 H55            2.8324    -3.2039    -8.8988 H       
  56 H56            4.8601    -5.3427    -6.9587 H       
  57 H57            1.2863    -1.9199    -7.4096 H       
  58 H58            1.2418    -3.2885    -6.2724 H       
  59 H59            1.7053    -1.6688    -5.6980 H       
  60 H60            7.4912    -4.4238    -7.4164 H       
  61 H61            7.4737    -5.3366    -5.8884 H       
  62 H62            6.9957    -6.1334    -7.4066 H       
  63 H63           -0.8519    -3.7872     2.6197 H       
  64 H64           -2.1370    -2.9020     3.4759 H       
  65 H65           -2.5045    -3.7580     1.9592 H       
@<TRIPOS>BOND
   1    1    2 1
   2    1    6 1
   3    1   33 1
   4    1   34 1
   5    2    3 1
   6    2   16 am
   7    3    4 1
   8    3   35 1
   9    3   36 1
  10    4    5 1
  11    4    7 2
  12    5    6 1
  13    5    9 1
  14    6   37 1
  15    6   38 1
  16    7    8 1
  17    7   12 1
  18    8    9 2
  19    9   10 1
  20   10   11 ar
  21   10   21 ar
  22   11   18 ar
  23   11   39 1
  24   12   13 2
  25   12   15 am
  26   14   15 1
  27   14   27 1
  28   14   25 1
  29   14   40 1
  30   15   41 1
  31   16   17 2
  32   16   22 1
  33   18   19 ar
  34   18   42 1
  35   19   20 ar
  36   19   43 1
  37   20   21 ar
  38   20   44 1
  39   21   45 1
  40   22   23 1
  41   22   32 1
  42   22   46 1
  43   23   47 1
  44   23   48 1
  45   23   49 1
  46   24   25 1
  47   24   50 1
  48   24   51 1
  49   24   52 1
  50   25   29 1
  51   25   26 1
  52   26   53 1
  53   26   54 1
  54   26   55 1
  55   27   28 am
  56   27   30 2
  57   28   31 1
  58   28   56 1
  59   29   57 1
  60   29   58 1
  61   29   59 1
  62   31   60 1
  63   31   61 1
  64   31   62 1
  65   32   63 1
  66   32   64 1
  67   32   65 1

#	End of record

