#	Name: ASD01870645
#	Creating user name:	WinNT
#	Creation time:	15. 06. 2019 19:39

#	Modifying user name:	WinNT
#	Modification time:	15. 06. 2019 19:39

#	Program:	/corina/corina34_cracker 3.40 0067  02.08.2006

@<TRIPOS>MOLECULE
ASD01870645
  43   46    0    0    0
SMALL
NO_CHARGES


@<TRIPOS>ATOM
   1 C1             0.5045     1.3623    -1.4453 C.ar    
   2 C2             0.5289    -0.0184    -1.4321 C.ar    
   3 C3             1.4830    -0.6893    -0.6862 C.ar    
   4 C4             2.4171     0.0177     0.0500 C.ar    
   5 C5             2.4031     1.3970     0.0456 C.ar    
   6 C6             1.4443     2.0804    -0.7046 C.ar    
   7 C7             1.4246     3.5584    -0.7143 C.2     
   8 O8             0.5886     4.1509    -1.3684 O.2     
   9 N9             2.3336     4.2492     0.0021 N.am    
  10 C10            2.3759     5.6456    -0.0816 C.ar    
  11 C11            1.2403     7.7467    -0.2984 C.ar    
  12 C12            1.1982     6.3694    -0.2164 C.ar    
  13 C13            3.5953     6.3082    -0.0241 C.ar    
  14 C14            3.6368     7.6855    -0.1062 C.ar    
  15 C15            2.4597     8.4084    -0.2462 C.ar    
  16 N16            2.5022     9.8084    -0.3301 N.am    
  17 C17            2.3227    11.9627    -1.1913 C.3     
  18 C18            2.1649    10.4783    -1.4390 C.2     
  19 C19            2.8781    10.5845     0.6940 C.2     
  20 C20            2.8112    12.0354     0.2698 C.3     
  21 C21            1.4531    12.6229    -0.1194 C.3     
  22 C22            1.3279    14.1474    -0.1534 C.3     
  23 C23            0.2020    11.8694     0.3364 C.3     
  24 O24            1.7925     9.9754    -2.4773 O.2     
  25 O25            3.2178    10.1877     1.7880 O.2     
  26 Cl26          -0.6392    -0.9144    -2.3521 Cl      
  27 H27            2.7631    12.5661    -1.9850 H       
  28 H28            3.6228    12.6933     0.5803 H       
  29 H29           -0.2372     1.8850    -2.0310 H       
  30 H30            1.4980    -1.7692    -0.6786 H       
  31 H31            3.1587    -0.5116     0.6299 H       
  32 H32            3.1325     1.9473     0.6214 H       
  33 H33            2.9583     3.7785     0.5757 H       
  34 H34            0.3246     8.3096    -0.4033 H       
  35 H35            0.2496     5.8547    -0.2574 H       
  36 H36            4.5109     5.7459     0.0852 H       
  37 H37            4.5848     8.2008    -0.0611 H       
  38 H38            0.8958    14.4553    -1.1055 H       
  39 H39            0.6838    14.4773     0.6616 H       
  40 H40            2.3151    14.5956    -0.0406 H       
  41 H41            0.4907    10.9044     0.7531 H       
  42 H42           -0.3168    12.4530     1.0969 H       
  43 H43           -0.4592    11.7138    -0.5161 H       
@<TRIPOS>BOND
   1    1    2 ar
   2    1    6 ar
   3    1   29 1
   4    2    3 ar
   5    2   26 1
   6    3    4 ar
   7    3   30 1
   8    4    5 ar
   9    4   31 1
  10    5    6 ar
  11    5   32 1
  12    6    7 1
  13    7    8 2
  14    7    9 am
  15    9   10 1
  16    9   33 1
  17   10   13 ar
  18   10   12 ar
  19   11   12 ar
  20   11   15 ar
  21   11   34 1
  22   12   35 1
  23   13   14 ar
  24   13   36 1
  25   14   15 ar
  26   14   37 1
  27   15   16 1
  28   16   19 am
  29   16   18 am
  30   17   18 1
  31   17   20 1
  32   17   21 1
  33   17   27 1
  34   18   24 2
  35   19   20 1
  36   19   25 2
  37   20   28 1
  38   20   21 1
  39   21   22 1
  40   21   23 1
  41   22   38 1
  42   22   39 1
  43   22   40 1
  44   23   41 1
  45   23   42 1
  46   23   43 1

#	End of record

