#	Name: ASD03240005
#	Creating user name:	WinNT
#	Creation time:	15. 06. 2019 20:34

#	Modifying user name:	WinNT
#	Modification time:	15. 06. 2019 20:34

#	Program:	/corina/corina34_cracker 3.40 0067  02.08.2006

@<TRIPOS>MOLECULE
ASD03240005
  78   84    0    0    0
SMALL
NO_CHARGES


@<TRIPOS>ATOM
   1 O1             0.0021    -0.0041     0.0020 O.2     
   2 C2            -0.0144     1.2105     0.0087 C.2     
   3 C3             1.2538     1.9835     0.0007 C.2     
   4 N4            -1.1866     1.8819     0.0178 N.am    
   5 C5            -1.1717     3.3471     0.0183 C.3     
   6 C6             0.0196     3.8531     0.8293 C.3     
   7 N7             1.2540     3.2051     0.3797 N.2     
   8 C8             0.1478     5.3438     0.6494 C.ar    
   9 C9            -1.0613     3.8473    -1.3990 C.ar    
  10 C10           -1.7919     4.9495    -1.8019 C.ar    
  11 C11           -1.6907     5.4083    -3.1019 C.ar    
  12 C12           -0.8586     4.7651    -3.9990 C.ar    
  13 C13           -0.1273     3.6634    -3.5960 C.ar    
  14 C14           -0.2253     3.2073    -2.2947 C.ar    
  15 C15           -0.3334     6.2012     1.6212 C.ar    
  16 C16           -0.2159     7.5686     1.4561 C.ar    
  17 C17            0.3832     8.0786     0.3195 C.ar    
  18 C18            0.8652     7.2213    -0.6518 C.ar    
  19 C19            0.7515     5.8537    -0.4847 C.ar    
  20 C20            0.5104     9.5694     0.1391 C.3     
  21 N21            1.7818    10.0257     0.7163 N.3     
  22 C22            2.0525    11.4230     0.3546 C.3     
  23 C23            3.4463    11.8181     0.8477 C.3     
  24 C24            3.5135    11.6425     2.3674 C.3     
  25 C25            3.1803    10.1904     2.7207 C.3     
  26 C26            1.7942     9.8425     2.1733 C.3     
  27 N27            4.8631    11.9636     2.8381 N.am    
  28 C28            5.1919    12.9639     3.7499 C.ar    
  29 C29            6.5781    12.9223     3.9123 C.ar    
  30 N30            7.0486    11.8979     3.0941 N.am    
  31 C31            5.9964    11.3383     2.4675 C.2     
  32 C32            4.4425    13.8972     4.4500 C.ar    
  33 C33            5.0704    14.7815     5.3049 C.ar    
  34 C34            6.4448    14.7402     5.4659 C.ar    
  35 C35            7.1997    13.8143     4.7729 C.ar    
  36 O36            6.0609    10.4134     1.6794 O.2     
  37 C37            2.5349     1.3312    -0.4513 C.3     
  38 C38            2.9014     0.2268     0.5063 C.ar    
  39 C39            2.4412    -1.0583     0.2881 C.ar    
  40 C40            2.7773    -2.0713     1.1665 C.ar    
  41 C41            3.5741    -1.7994     2.2629 C.ar    
  42 C42            4.0352    -0.5145     2.4805 C.ar    
  43 C43            3.7026     0.4977     1.5997 C.ar    
  44 H44           -2.0282     1.3998     0.0237 H       
  45 H45           -2.0956     3.7186     0.4614 H       
  46 H46           -0.1433     3.6332     1.8844 H       
  47 H47           -2.4419     5.4521    -1.1010 H       
  48 H48           -2.2619     6.2690    -3.4168 H       
  49 H49           -0.7800     5.1231    -5.0150 H       
  50 H50            0.5225     3.1607    -4.2969 H       
  51 H51            0.3460     2.3465    -1.9798 H       
  52 H52           -0.8015     5.8027     2.5092 H       
  53 H53           -0.5925     8.2384     2.2150 H       
  54 H54            1.3329     7.6198    -1.5399 H       
  55 H55            1.1281     5.1839    -1.2436 H       
  56 H56            0.4867     9.8101    -0.9237 H       
  57 H57           -0.3173    10.0683     0.6432 H       
  58 H58            2.0059    11.5332    -0.7288 H       
  59 H59            1.3068    12.0691     0.8177 H       
  60 H60            4.1938    11.1814     0.3745 H       
  61 H61            3.6408    12.8599     0.5928 H       
  62 H62            2.7929    12.3078     2.8431 H       
  63 H63            3.9236     9.5281     2.2769 H       
  64 H64            3.1846    10.0693     3.8040 H       
  65 H65            1.0496    10.4960     2.6279 H       
  66 H66            1.5599     8.8048     2.4108 H       
  67 H67            7.9758    11.6307     2.9954 H       
  68 H68            3.3701    13.9326     4.3267 H       
  69 H69            4.4869    15.5087     5.8500 H       
  70 H70            6.9288    15.4350     6.1362 H       
  71 H71            8.2716    13.7848     4.9013 H       
  72 H72            2.3985     0.9159    -1.4499 H       
  73 H73            3.3328     2.0735    -0.4724 H       
  74 H74            1.8186    -1.2707    -0.5685 H       
  75 H75            2.4171    -3.0752     0.9964 H       
  76 H76            3.8362    -2.5907     2.9495 H       
  77 H77            4.6574    -0.3019     3.3373 H       
  78 H78            4.0628     1.5015     1.7698 H       
@<TRIPOS>BOND
   1    1    2 2
   2    2    3 1
   3    2    4 am
   4    3   37 1
   5    3    7 2
   6    4    5 1
   7    4   44 1
   8    5    6 1
   9    5    9 1
  10    5   45 1
  11    6    7 1
  12    6    8 1
  13    6   46 1
  14    8   15 ar
  15    8   19 ar
  16    9   10 ar
  17    9   14 ar
  18   10   11 ar
  19   10   47 1
  20   11   12 ar
  21   11   48 1
  22   12   13 ar
  23   12   49 1
  24   13   14 ar
  25   13   50 1
  26   14   51 1
  27   15   16 ar
  28   15   52 1
  29   16   17 ar
  30   16   53 1
  31   17   18 ar
  32   17   20 1
  33   18   19 ar
  34   18   54 1
  35   19   55 1
  36   20   21 1
  37   20   56 1
  38   20   57 1
  39   21   22 1
  40   21   26 1
  41   22   23 1
  42   22   58 1
  43   22   59 1
  44   23   24 1
  45   23   60 1
  46   23   61 1
  47   24   25 1
  48   24   27 1
  49   24   62 1
  50   25   26 1
  51   25   63 1
  52   25   64 1
  53   26   65 1
  54   26   66 1
  55   27   28 1
  56   27   31 am
  57   28   29 ar
  58   28   32 ar
  59   29   30 1
  60   29   35 ar
  61   30   31 am
  62   30   67 1
  63   31   36 2
  64   32   33 ar
  65   32   68 1
  66   33   34 ar
  67   33   69 1
  68   34   35 ar
  69   34   70 1
  70   35   71 1
  71   37   38 1
  72   37   72 1
  73   37   73 1
  74   38   39 ar
  75   38   43 ar
  76   39   40 ar
  77   39   74 1
  78   40   41 ar
  79   40   75 1
  80   41   42 ar
  81   41   76 1
  82   42   43 ar
  83   42   77 1
  84   43   78 1

#	End of record

