#	Name: ASD07932118
#	Creating user name:	WinNT
#	Creation time:	15. 06. 2019 21:14

#	Modifying user name:	WinNT
#	Modification time:	15. 06. 2019 21:14

#	Program:	/corina/corina34_cracker 3.40 0067  02.08.2006

@<TRIPOS>MOLECULE
ASD07932118
  47   49    0    0    0
SMALL
NO_CHARGES


@<TRIPOS>ATOM
   1 N1            -0.0142     1.4462     0.0288 N.pl3   
   2 C2             0.0009    -0.0204     0.0211 C.3     
   3 C3             0.7670    -0.5250     1.2518 C.3     
   4 S4             2.4325     0.2099     1.2287 S.o2    
   5 N5             2.1159     1.8289     0.9938 N.am    
   6 C6             1.1750     2.1461     0.0244 C.2     
   7 C7             2.7974     2.8662     1.7722 C.3     
   8 N8             1.4069     3.0741    -0.8610 N.2     
   9 O9             3.0300     0.1456     2.5163 O.2     
  10 O10            3.1432    -0.1880     0.0643 O.2     
  11 C11           -1.4136    -0.5385     0.0616 C.ar    
  12 C12            0.6919    -0.5176    -1.2502 C.3     
  13 C13           -2.4675     0.3430     0.1997 C.ar    
  14 C14           -3.7711    -0.1350     0.2365 C.ar    
  15 C15           -4.0116    -1.4988     0.1343 C.ar    
  16 C16           -2.9544    -2.3770    -0.0036 C.ar    
  17 C17           -1.6560    -1.8979    -0.0454 C.ar    
  18 N18           -4.8406     0.7564     0.3768 N.am    
  19 C19           -6.0108     0.5081    -0.2440 C.2     
  20 O20           -6.1077    -0.4365    -1.0026 O.2     
  21 C21           -7.1786     1.3863    -0.0019 C.ar    
  22 N22           -7.0747     2.4206     0.8280 N.ar    
  23 F23           -0.6235    -2.7586    -0.1804 F       
  24 C24           -8.1159     3.2002     1.0406 C.ar    
  25 C25           -9.3199     2.9437     0.4011 C.ar    
  26 N26           -9.4288     1.9176    -0.4243 N.ar    
  27 C27           -8.3888     1.1346    -0.6476 C.ar    
  28 C28           -7.9985     4.3721     1.9807 C.3     
  29 H29           -0.8587     1.9233     0.0329 H       
  30 H30            0.2445    -0.2226     2.1593 H       
  31 H31            0.8444    -1.6117     1.2164 H       
  32 H32            3.7101     3.1661     1.2573 H       
  33 H33            2.1408     3.7295     1.8804 H       
  34 H34            3.0483     2.4747     2.7580 H       
  35 H35            2.2487     3.5559    -0.8494 H       
  36 H36            1.7155    -0.1438    -1.2772 H       
  37 H37            0.7028    -1.6075    -1.2552 H       
  38 H38            0.1497    -0.1556    -2.1237 H       
  39 H39           -2.2783     1.4033     0.2794 H       
  40 H40           -5.0244    -1.8726     0.1631 H       
  41 H41           -3.1410    -3.4378    -0.0831 H       
  42 H42           -4.7397     1.5531     0.9209 H       
  43 H43          -10.1710     3.5845     0.5786 H       
  44 H44           -8.4778     0.2962    -1.3225 H       
  45 H45           -7.6814     5.2540     1.4242 H       
  46 H46           -8.9658     4.5639     2.4450 H       
  47 H47           -7.2632     4.1461     2.7530 H       
@<TRIPOS>BOND
   1    1    2 1
   2    1    6 1
   3    1   29 1
   4    2    3 1
   5    2   11 1
   6    2   12 1
   7    3    4 1
   8    3   30 1
   9    3   31 1
  10    4    5 am
  11    4    9 2
  12    4   10 2
  13    5    6 1
  14    5    7 1
  15    6    8 2
  16    7   32 1
  17    7   33 1
  18    7   34 1
  19    8   35 1
  20   11   13 ar
  21   11   17 ar
  22   12   36 1
  23   12   37 1
  24   12   38 1
  25   13   14 ar
  26   13   39 1
  27   14   15 ar
  28   14   18 1
  29   15   16 ar
  30   15   40 1
  31   16   17 ar
  32   16   41 1
  33   17   23 1
  34   18   19 am
  35   18   42 1
  36   19   20 2
  37   19   21 1
  38   21   22 ar
  39   21   27 ar
  40   22   24 ar
  41   24   25 ar
  42   24   28 1
  43   25   26 ar
  44   25   43 1
  45   26   27 ar
  46   27   44 1
  47   28   45 1
  48   28   46 1
  49   28   47 1

#	End of record

