#	Name: ASD01916285
#	Creating user name:	WinNT
#	Creation time:	15. 06. 2019 20:07

#	Modifying user name:	WinNT
#	Modification time:	15. 06. 2019 20:07

#	Program:	/corina/corina34_cracker 3.40 0067  02.08.2006

@<TRIPOS>MOLECULE
ASD01916285
  28   30    0    0    0
SMALL
NO_CHARGES


@<TRIPOS>ATOM
   1 C1             0.0974     1.3425     0.5024 C.2     
   2 N2             0.1204    -0.0007     0.5168 N.am    
   3 C3             1.2080    -0.6752     0.0127 C.2     
   4 C4             2.3254     0.1000    -0.5328 C.2     
   5 C5             2.2395     1.4441    -0.5174 C.2     
   6 N6             1.1212     2.0552     0.0024 N.am    
   7 N7             0.9875    -1.9659     0.1424 N.2     
   8 C8            -0.2093    -2.1554     0.7149 C.2     
   9 C9            -0.7673    -0.9519     0.9570 C.2     
  10 O10           -0.8727     1.9258     0.9466 O.2     
  11 C11            1.0482     3.4545     0.0101 C.ar    
  12 C12            1.5294     4.1698     1.0986 C.ar    
  13 C13            1.4570     5.5489     1.1041 C.ar    
  14 C14            0.9049     6.2185     0.0250 C.ar    
  15 C15            0.4240     5.5070    -1.0614 C.ar    
  16 C16            0.4998     4.1281    -1.0732 C.ar    
  17 F17            0.8349     7.5677     0.0322 F       
  18 C18           -0.8286    -3.4915     1.0350 C.3     
  19 Cl19          -0.3465    -3.9945     2.6979 Cl      
  20 Br20          -2.4534    -0.6339     1.7518 Br      
  21 H21            3.1965    -0.3942    -0.9370 H       
  22 H22            3.0476     2.0419    -0.9125 H       
  23 H23            1.9598     3.6479     1.9406 H       
  24 H24            1.8308     6.1056     1.9507 H       
  25 H25           -0.0069     6.0310    -1.9018 H       
  26 H26            0.1287     3.5737    -1.9226 H       
  27 H27           -1.9143    -3.4112     0.9800 H       
  28 H28           -0.4823    -4.2340     0.3160 H       
@<TRIPOS>BOND
   1    1    2 am
   2    1    6 am
   3    1   10 2
   4    2    3 1
   5    2    9 1
   6    3    4 1
   7    3    7 2
   8    4    5 2
   9    4   21 1
  10    5    6 1
  11    5   22 1
  12    6   11 1
  13    7    8 1
  14    8    9 2
  15    8   18 1
  16    9   20 1
  17   11   12 ar
  18   11   16 ar
  19   12   13 ar
  20   12   23 1
  21   13   14 ar
  22   13   24 1
  23   14   15 ar
  24   14   17 1
  25   15   16 ar
  26   15   25 1
  27   16   26 1
  28   18   19 1
  29   18   27 1
  30   18   28 1

#	End of record

