#	Name: ASD01913779
#	Creating user name:	WinNT
#	Creation time:	15. 06. 2019 20:02

#	Modifying user name:	WinNT
#	Modification time:	15. 06. 2019 20:02

#	Program:	/corina/corina34_cracker 3.40 0067  02.08.2006

@<TRIPOS>MOLECULE
ASD01913779
  38   40    0    0    0
SMALL
NO_CHARGES


@<TRIPOS>ATOM
   1 C1            -0.0058     1.3614     0.1941 C.ar    
   2 C2            -0.0013     0.0016    -0.0623 C.ar    
   3 C3             1.1888    -0.6581    -0.3141 C.ar    
   4 C4             2.3802     0.0367    -0.3116 C.ar    
   5 C5             2.3835     1.4102    -0.0539 C.ar    
   6 C6             1.1777     2.0694     0.1999 C.ar    
   7 C7             3.6165     2.1383    -0.0492 C.1     
   8 C8             4.6274     2.7353    -0.0452 C.1     
   9 C9             5.8604     3.4635    -0.0404 C.ar    
  10 C10            5.8721     4.8425     0.2174 C.ar    
  11 C11            8.2483     4.7810    -0.0487 C.ar    
  12 N12            8.2054     3.4780    -0.2829 N.ar    
  13 C13            7.0702     2.8106    -0.2867 C.ar    
  14 C14            7.0856     5.5004     0.2110 C.ar    
  15 N15            9.4756     5.4396    -0.0561 N.am    
  16 C16            9.6468     6.7686    -0.0506 C.2     
  17 O17           10.9293     7.1489    -0.0592 O.3     
  18 C18           11.7855     5.9701    -0.0723 C.3     
  19 C19           10.7951     4.7897    -0.0648 C.3     
  20 O20            8.7218     7.5563    -0.0389 O.2     
  21 C21           12.6459     5.9461    -1.3373 C.3     
  22 C22           12.6666     5.9331     1.1780 C.3     
  23 H23           -0.9389     1.8704     0.3857 H       
  24 H24           -0.9312    -0.5477    -0.0656 H       
  25 H25            1.1847    -1.7197    -0.5127 H       
  26 H26            3.3083    -0.4795    -0.5079 H       
  27 H27            1.1727     3.1308     0.3995 H       
  28 H28            4.9543     5.3762     0.4155 H       
  29 H29            7.0749     1.7484    -0.4817 H       
  30 H30            7.1322     6.5618     0.4050 H       
  31 H31           10.9329     4.1799     0.8282 H       
  32 H32           10.9128     4.1853    -0.9642 H       
  33 H33           13.2901     6.8252    -1.3553 H       
  34 H34           13.2599     5.0456    -1.3421 H       
  35 H35           12.0006     5.9505    -2.2157 H       
  36 H36           12.0358     5.9284     2.0669 H       
  37 H37           13.2805     5.0326     1.1633 H       
  38 H38           13.3110     6.8120     1.1944 H       
@<TRIPOS>BOND
   1    1    2 ar
   2    1    6 ar
   3    1   23 1
   4    2    3 ar
   5    2   24 1
   6    3    4 ar
   7    3   25 1
   8    4    5 ar
   9    4   26 1
  10    5    6 ar
  11    5    7 1
  12    6   27 1
  13    7    8 3
  14    8    9 1
  15    9   10 ar
  16    9   13 ar
  17   10   14 ar
  18   10   28 1
  19   11   12 ar
  20   11   15 1
  21   11   14 ar
  22   12   13 ar
  23   13   29 1
  24   14   30 1
  25   15   16 am
  26   15   19 1
  27   16   17 1
  28   16   20 2
  29   17   18 1
  30   18   19 1
  31   18   21 1
  32   18   22 1
  33   19   31 1
  34   19   32 1
  35   21   33 1
  36   21   34 1
  37   21   35 1
  38   22   36 1
  39   22   37 1
  40   22   38 1

#	End of record

