#	Name: ASD09116265
#	Creating user name:	WinNT
#	Creation time:	15. 06. 2019 21:21

#	Modifying user name:	WinNT
#	Modification time:	15. 06. 2019 21:21

#	Program:	/corina/corina34_cracker 3.40 0067  02.08.2006

@<TRIPOS>MOLECULE
ASD09116265
  77   83    0    0    0
SMALL
NO_CHARGES


@<TRIPOS>ATOM
   1 N1            -0.1457     2.9836    -0.8040 N.pl3   
   2 N2            -0.3834     1.7261    -1.3820 N.2     
   3 C3             1.1990     3.1219    -0.7295 C.2     
   4 N4             1.7462     2.0320    -1.2243 N.2     
   5 C5             0.7880     1.1864    -1.6197 C.2     
   6 N6             1.8776     4.2154    -0.2234 N.pl3   
   7 C7             3.2699     4.1801    -0.1044 C.ar    
   8 C8             4.0111     5.3453    -0.2544 C.ar    
   9 C9             5.3865     5.3070    -0.1357 C.ar    
  10 C10            6.0259     4.1103     0.1317 C.ar    
  11 C11            5.2911     2.9484     0.2811 C.ar    
  12 C12            3.9149     2.9807     0.1698 C.ar    
  13 C13           -1.1056     3.9100    -0.3930 C.ar    
  14 N14           -0.8120     4.7949     0.5480 N.ar    
  15 N15           -1.6623     5.6623     0.9691 N.ar    
  16 C16           -2.8918     5.7212     0.4831 C.ar    
  17 C17           -3.2849     4.8405    -0.5286 C.ar    
  18 C18           -2.3743     3.9078    -0.9784 C.ar    
  19 C19           -3.8900     6.6836     1.0043 C.ar    
  20 C20           -5.1567     6.2164     1.3583 C.ar    
  21 C21           -5.4561     4.7460     1.2550 C.3     
  22 C22           -5.7014     4.3280    -0.1923 C.3     
  23 C23           -4.6605     4.9507    -1.1189 C.3     
  24 C24           -3.5835     8.0332     1.1392 C.ar    
  25 C25           -4.5441     8.9091     1.6066 C.ar    
  26 C26           -5.8048     8.4455     1.9362 C.ar    
  27 C27           -6.1111     7.1014     1.8118 C.ar    
  28 N28            1.0005    -0.0675    -2.1919 N.pl3   
  29 C29            7.5270     4.0723     0.2600 C.3     
  30 N30            7.9047     4.3047     1.6605 N.3     
  31 C31            9.3353     4.0419     1.8707 C.3     
  32 C32            9.7043     4.3712     3.3191 C.3     
  33 N33            8.8834     3.5587     4.2278 N.3     
  34 C34            7.4529     3.8216     4.0176 C.3     
  35 C35            7.0839     3.4923     2.5692 C.3     
  36 C36            9.2611     3.7912     5.6282 C.3     
  37 C37            8.4098     2.9082     6.5573 C.3     
  38 C38            9.3917     1.9914     7.3157 C.3     
  39 C39           10.7371     2.7576     7.2726 C.3     
  40 C40           10.7307     3.3801     5.8544 C.3     
  41 H41            1.3875     5.0069     0.0490 H       
  42 H42            3.5124     6.2801    -0.4639 H       
  43 H43            5.9634     6.2126    -0.2522 H       
  44 H44            5.7936     2.0154     0.4895 H       
  45 H45            3.3416     2.0730     0.2870 H       
  46 H46           -2.6348     3.1966    -1.7483 H       
  47 H47           -4.6119     4.1815     1.6510 H       
  48 H48           -6.3434     4.5204     1.8466 H       
  49 H49           -5.6442     3.2421    -0.2668 H       
  50 H50           -6.6952     4.6561    -0.4970 H       
  51 H51           -4.9013     6.0026    -1.2728 H       
  52 H52           -4.6810     4.4350    -2.0789 H       
  53 H53           -2.5993     8.3947     0.8802 H       
  54 H54           -4.3101     9.9578     1.7152 H       
  55 H55           -6.5545     9.1362     2.2930 H       
  56 H56           -7.0978     6.7462     2.0700 H       
  57 H57            1.9046    -0.3897    -2.3321 H       
  58 H58            0.2442    -0.6174    -2.4497 H       
  59 H59            7.8942     3.0966    -0.0582 H       
  60 H60            7.9651     4.8480    -0.3680 H       
  61 H61            9.5449     2.9909     1.6719 H       
  62 H62            9.9224     4.6642     1.1954 H       
  63 H63           10.7585     4.1495     3.4851 H       
  64 H64            9.5202     5.4284     3.5099 H       
  65 H65            6.8657     3.1992     4.6929 H       
  66 H66            7.2432     4.8726     4.2164 H       
  67 H67            6.0296     3.7140     2.4031 H       
  68 H68            7.2680     2.4351     2.3784 H       
  69 H69            9.1233     4.8422     5.8823 H       
  70 H70            7.8594     3.5306     7.2629 H       
  71 H71            7.7163     2.3072     5.9691 H       
  72 H72            9.0650     1.8518     8.3461 H       
  73 H73            9.4839     1.0301     6.8102 H       
  74 H74           10.7632     3.5355     8.0358 H       
  75 H75           11.5762     2.0718     7.3897 H       
  76 H76           11.0391     2.6431     5.1129 H       
  77 H77           11.3812     4.2541     5.8184 H       
@<TRIPOS>BOND
   1    1    2 1
   2    1    3 1
   3    1   13 1
   4    2    5 2
   5    3    4 2
   6    3    6 1
   7    4    5 1
   8    5   28 1
   9    6    7 1
  10    6   41 1
  11    7    8 ar
  12    7   12 ar
  13    8    9 ar
  14    8   42 1
  15    9   10 ar
  16    9   43 1
  17   10   11 ar
  18   10   29 1
  19   11   12 ar
  20   11   44 1
  21   12   45 1
  22   13   14 ar
  23   13   18 ar
  24   14   15 ar
  25   15   16 ar
  26   16   17 ar
  27   16   19 1
  28   17   18 ar
  29   17   23 1
  30   18   46 1
  31   19   20 ar
  32   19   24 ar
  33   20   21 1
  34   20   27 ar
  35   21   22 1
  36   21   47 1
  37   21   48 1
  38   22   23 1
  39   22   49 1
  40   22   50 1
  41   23   51 1
  42   23   52 1
  43   24   25 ar
  44   24   53 1
  45   25   26 ar
  46   25   54 1
  47   26   27 ar
  48   26   55 1
  49   27   56 1
  50   28   57 1
  51   28   58 1
  52   29   30 1
  53   29   59 1
  54   29   60 1
  55   30   31 1
  56   30   35 1
  57   31   32 1
  58   31   61 1
  59   31   62 1
  60   32   33 1
  61   32   63 1
  62   32   64 1
  63   33   34 1
  64   33   36 1
  65   34   35 1
  66   34   65 1
  67   34   66 1
  68   35   67 1
  69   35   68 1
  70   36   37 1
  71   36   40 1
  72   36   69 1
  73   37   38 1
  74   37   70 1
  75   37   71 1
  76   38   39 1
  77   38   72 1
  78   38   73 1
  79   39   40 1
  80   39   74 1
  81   39   75 1
  82   40   76 1
  83   40   77 1

#	End of record

