#	Name: ASD01884845
#	Creating user name:	WinNT
#	Creation time:	15. 06. 2019 19:49

#	Modifying user name:	WinNT
#	Modification time:	15. 06. 2019 19:49

#	Program:	/corina/corina34_cracker 3.40 0067  02.08.2006

@<TRIPOS>MOLECULE
ASD01884845
  46   49    0    0    0
SMALL
NO_CHARGES


@<TRIPOS>ATOM
   1 C1             2.4479    -0.0130     0.3874 C.3     
   2 N2             1.1341    -0.0710    -0.2584 N.pl3   
   3 C3             0.0176     0.4762     0.3791 C.ar    
   4 C4             0.1410     1.0750     1.6307 C.ar    
   5 C5            -0.9948     1.6031     2.2223 C.ar    
   6 C6            -2.2038     1.5196     1.5571 C.ar    
   7 N7            -2.2876     0.9457     0.3726 N.ar    
   8 C8            -1.2313     0.4362    -0.2286 C.ar    
   9 C9             0.9975    -0.6739    -1.5128 C.ar    
  10 C10            1.1637    -2.0515    -1.6442 C.ar    
  11 C11            1.0325    -2.6601    -2.8721 C.ar    
  12 C12            0.7311    -1.9001    -3.9993 C.ar    
  13 N13            0.5974    -2.5032    -5.2343 N.pl3   
  14 C14            0.3078    -1.8170    -6.3492 C.2     
  15 C15            0.1216    -0.4497    -6.3433 C.2     
  16 C16           -0.1950     0.2669    -7.5887 C.2     
  17 N17           -0.2661     1.6128    -7.5922 N.am    
  18 O18           -0.3927    -0.3553    -8.6150 O.2     
  19 C19            0.2443     0.2797    -5.0719 C.2     
  20 O20            0.0884     1.4871    -5.0152 O.2     
  21 C21            0.5633    -0.5109    -3.8682 C.ar    
  22 C22            0.6921     0.0978    -2.6206 C.ar    
  23 C23            0.7720    -3.8892    -5.3262 C.ar    
  24 C24           -0.1566    -4.7468    -4.7507 C.ar    
  25 C25            0.0176    -6.1135    -4.8425 C.ar    
  26 C26            1.1176    -6.6293    -5.5074 C.ar    
  27 F27            1.2861    -7.9668    -5.5961 F       
  28 C28            2.0448    -5.7759    -6.0819 C.ar    
  29 C29            1.8712    -4.4086    -5.9978 C.ar    
  30 H30            2.5903    -0.9021     1.0017 H       
  31 H31            3.2258     0.0303    -0.3749 H       
  32 H32            2.5050     0.8758     1.0157 H       
  33 H33            1.0985     1.1259     2.1278 H       
  34 H34           -0.9366     2.0745     3.1922 H       
  35 H35           -3.0922     1.9299     2.0139 H       
  36 H36           -1.3384    -0.0212    -1.2011 H       
  37 H37            1.3979    -2.6472    -0.7744 H       
  38 H38            1.1639    -3.7284    -2.9612 H       
  39 H39            0.2176    -2.3522    -7.2830 H       
  40 H40           -0.0388     2.1126    -6.7926 H       
  41 H41           -0.5446     2.0816    -8.3945 H       
  42 H42            0.5586     1.1648    -2.5199 H       
  43 H43           -1.0141    -4.3450    -4.2316 H       
  44 H44           -0.7043    -6.7808    -4.3952 H       
  45 H45            2.9021    -6.1802    -6.5997 H       
  46 H46            2.5919    -3.7435    -6.4502 H       
@<TRIPOS>BOND
   1    1    2 1
   2    1   30 1
   3    1   31 1
   4    1   32 1
   5    2    3 1
   6    2    9 1
   7    3    8 ar
   8    3    4 ar
   9    4    5 ar
  10    4   33 1
  11    5    6 ar
  12    5   34 1
  13    6    7 ar
  14    6   35 1
  15    7    8 ar
  16    8   36 1
  17    9   22 ar
  18    9   10 ar
  19   10   11 ar
  20   10   37 1
  21   11   12 ar
  22   11   38 1
  23   12   21 ar
  24   12   13 1
  25   13   14 1
  26   13   23 1
  27   14   15 2
  28   14   39 1
  29   15   16 1
  30   15   19 1
  31   16   17 am
  32   16   18 2
  33   17   40 1
  34   17   41 1
  35   19   20 2
  36   19   21 1
  37   21   22 ar
  38   22   42 1
  39   23   29 ar
  40   23   24 ar
  41   24   25 ar
  42   24   43 1
  43   25   26 ar
  44   25   44 1
  45   26   27 1
  46   26   28 ar
  47   28   29 ar
  48   28   45 1
  49   29   46 1

#	End of record

