#	Name: ASD01812973
#	Creating user name:	WinNT
#	Creation time:	15. 06. 2019 19:29

#	Modifying user name:	WinNT
#	Modification time:	15. 06. 2019 19:29

#	Program:	/corina/corina34_cracker 3.40 0067  02.08.2006

@<TRIPOS>MOLECULE
ASD01812973
  60   64    0    0    0
SMALL
NO_CHARGES


@<TRIPOS>ATOM
   1 N1            -0.0158     1.3147     0.0093 N.ar    
   2 C2             0.0021    -0.0041     0.0020 C.ar    
   3 C3             1.1989    -0.7033    -0.0127 C.ar    
   4 C4             2.3829    -0.0013    -0.0202 C.ar    
   5 C5             2.3448     1.3978    -0.0128 C.ar    
   6 C6             1.0955     2.0332     0.0025 C.ar    
   7 C7             3.8373    -0.3889    -0.0363 C.3     
   8 N8             4.5955     0.8684    -0.0373 N.am    
   9 C9             3.7280     1.8961    -0.0237 C.2     
  10 C10            6.0558     0.9844    -0.0504 C.3     
  11 C11            6.5432     1.0311    -1.4757 C.ar    
  12 O12            1.0255     3.3856     0.0100 O.3     
  13 O13            4.0429     3.0706    -0.0212 O.2     
  14 C14            6.6712     2.2479    -2.1207 C.ar    
  15 C15            7.1176     2.2964    -3.4259 C.ar    
  16 C16            7.4395     1.1169    -4.0935 C.ar    
  17 C17            7.3087    -0.1059    -3.4392 C.ar    
  18 C18            6.8664    -0.1426    -2.1322 C.ar    
  19 C19           -0.2795     3.9677     0.0251 C.3     
  20 C20           -0.1576     5.4928     0.0317 C.3     
  21 C21            7.3295     1.8315    -6.5301 C.2     
  22 C22            7.9197     1.1628    -5.4977 C.2     
  23 C23            9.0674     0.5241    -6.0061 C.2     
  24 N24            9.1548     0.8003    -7.2803 N.2     
  25 N25            8.0754     1.6194    -7.6330 N.pl3   
  26 C26            7.8034     2.1534    -8.9698 C.3     
  27 C27           10.0277    -0.3289    -5.2178 C.3     
  28 C28           -1.5514     6.1187    -0.0780 C.3     
  29 C29           -1.4264     7.6421     0.0086 C.3     
  30 O30           -0.7853     7.9971     1.2354 O.3     
  31 C31            0.5394     7.4791     1.3727 C.3     
  32 C32            0.4934     5.9492     1.3410 C.3     
  33 H33           -0.9309    -0.5480     0.0080 H       
  34 H34            1.2023    -1.7833    -0.0178 H       
  35 H35            4.0797    -0.9721     0.8522 H       
  36 H36            4.0624    -0.9631    -0.9351 H       
  37 H37            6.3524     1.8979     0.4651 H       
  38 H38            6.4932     0.1235     0.4552 H       
  39 H39            6.4210     3.1618    -1.6023 H       
  40 H40            7.2168     3.2470    -3.9288 H       
  41 H41            7.5570    -1.0233    -3.9522 H       
  42 H42            6.7686    -1.0898    -1.6226 H       
  43 H43           -0.8289     3.6509    -0.8614 H       
  44 H44           -0.8123     3.6419     0.9185 H       
  45 H45            0.4535     5.8134    -0.8121 H       
  46 H46            6.4258     2.4203    -6.4749 H       
  47 H47            8.2962     3.1191    -9.0825 H       
  48 H48            8.1832     1.4617    -9.7216 H       
  49 H49            6.7282     2.2769    -9.0998 H       
  50 H50            9.6986    -1.3677    -5.2464 H       
  51 H51           11.0240    -0.2513    -5.6529 H       
  52 H52           10.0549     0.0153    -4.1840 H       
  53 H53           -2.0001     5.8437    -1.0325 H       
  54 H54           -2.1780     5.7577     0.7376 H       
  55 H55           -0.8333     8.0064    -0.8302 H       
  56 H56           -2.4192     8.0908    -0.0259 H       
  57 H57            1.1582     7.8413     0.5518 H       
  58 H58            0.9628     7.8105     2.3209 H       
  59 H59           -0.0918     5.5848     2.1852 H       
  60 H60            1.5071     5.5530     1.4012 H       
@<TRIPOS>BOND
   1    1    2 ar
   2    1    6 ar
   3    2    3 ar
   4    2   33 1
   5    3    4 ar
   6    3   34 1
   7    4    7 1
   8    4    5 ar
   9    5    6 ar
  10    5    9 1
  11    6   12 1
  12    7    8 1
  13    7   35 1
  14    7   36 1
  15    8    9 am
  16    8   10 1
  17    9   13 2
  18   10   11 1
  19   10   37 1
  20   10   38 1
  21   11   14 ar
  22   11   18 ar
  23   12   19 1
  24   14   15 ar
  25   14   39 1
  26   15   16 ar
  27   15   40 1
  28   16   17 ar
  29   16   22 1
  30   17   18 ar
  31   17   41 1
  32   18   42 1
  33   19   20 1
  34   19   43 1
  35   19   44 1
  36   20   28 1
  37   20   32 1
  38   20   45 1
  39   21   22 2
  40   21   25 1
  41   21   46 1
  42   22   23 1
  43   23   24 2
  44   23   27 1
  45   24   25 1
  46   25   26 1
  47   26   47 1
  48   26   48 1
  49   26   49 1
  50   27   50 1
  51   27   51 1
  52   27   52 1
  53   28   29 1
  54   28   53 1
  55   28   54 1
  56   29   30 1
  57   29   55 1
  58   29   56 1
  59   30   31 1
  60   31   32 1
  61   31   57 1
  62   31   58 1
  63   32   59 1
  64   32   60 1

#	End of record

