#	Name: ASD01948076
#	Creating user name:	WinNT
#	Creation time:	15. 06. 2019 20:13

#	Modifying user name:	WinNT
#	Modification time:	15. 06. 2019 20:13

#	Program:	/corina/corina34_cracker 3.40 0067  02.08.2006

@<TRIPOS>MOLECULE
ASD01948076
  51   54    0    0    0
SMALL
NO_CHARGES


@<TRIPOS>ATOM
   1 C1            -0.8129     1.8711    -0.5975 C.3     
   2 C2            -1.0915     0.3741    -0.4481 C.3     
   3 O3            -4.1045    -1.0078     0.3128 O.3     
   4 C4            -3.0000    -1.3564    -0.5319 C.3     
   5 C5            -2.5977     0.1234    -0.5461 C.3     
   6 C6            -3.3281     0.0935     0.8021 C.3     
   7 S7             0.9728     2.1683    -0.4813 S.o2    
   8 O8             1.4736     1.7143     0.7687 O.2     
   9 O9             1.6167     1.8192    -1.6989 O.2     
  10 N10            1.1132     3.8165    -0.4031 N.am    
  11 C11           -0.0131     3.8304     1.7245 C.2     
  12 C12            0.6130     4.5142     0.7151 C.2     
  13 C13            0.7573     5.9096     0.7934 C.2     
  14 C14            0.2549     6.5802     1.9017 C.2     
  15 C15           -0.3728     5.8481     2.9072 C.2     
  16 N16           -0.4870     4.5110     2.8104 N.am    
  17 O17           -0.2611     2.4976     1.8230 O.3     
  18 C18           -1.0767     3.5273     3.7406 C.3     
  19 C19           -0.5191     2.1891     3.2042 C.3     
  20 O20           -0.8232     6.4254     3.8859 O.2     
  21 C21            0.3874     8.0772     2.0147 C.3     
  22 N22            1.3932     6.6082    -0.2217 N.pl3   
  23 C23            2.7285     6.3294    -0.5328 C.ar    
  24 C24            3.3329     6.9437    -1.6250 C.ar    
  25 C25            4.6524     6.6654    -1.9289 C.ar    
  26 C26            5.3708     5.7773    -1.1479 C.ar    
  27 C27            4.7717     5.1653    -0.0621 C.ar    
  28 C28            3.4549     5.4436     0.2510 C.ar    
  29 I29            7.3704     5.3583    -1.6119 I       
  30 F30            2.6312     7.8104    -2.3877 F       
  31 H31           -1.1758     2.2133    -1.5666 H       
  32 H32           -1.3244     2.4168     0.1954 H       
  33 H33           -0.5800    -0.1716    -1.2410 H       
  34 H34           -0.7285     0.0319     0.5211 H       
  35 H35           -2.2677    -1.9993    -0.0435 H       
  36 H36           -3.3041    -1.7316    -1.5091 H       
  37 H37           -3.0889     0.7193    -1.3153 H       
  38 H38           -3.9197     0.9887     0.9938 H       
  39 H39           -2.6815    -0.1708     1.6389 H       
  40 H40            1.5396     4.3018    -1.1266 H       
  41 H41           -0.7378     3.7072     4.7609 H       
  42 H42           -2.1651     3.5443     3.6839 H       
  43 H43           -1.2618     1.3962     3.2924 H       
  44 H44            0.4022     1.9182     3.7198 H       
  45 H45           -0.5192     8.5515     1.6391 H       
  46 H46            0.5347     8.3510     3.0594 H       
  47 H47            1.2425     8.4116     1.4274 H       
  48 H48            0.9122     7.2901    -0.7162 H       
  49 H49            5.1229     7.1412    -2.7767 H       
  50 H50            5.3353     4.4722     0.5448 H       
  51 H51            2.9900     4.9689     1.1024 H       
@<TRIPOS>BOND
   1    1    2 1
   2    1    7 1
   3    1   31 1
   4    1   32 1
   5    2    5 1
   6    2   33 1
   7    2   34 1
   8    3    4 1
   9    3    6 1
  10    4    5 1
  11    4   35 1
  12    4   36 1
  13    5    6 1
  14    5   37 1
  15    6   38 1
  16    6   39 1
  17    7    8 2
  18    7    9 2
  19    7   10 am
  20   10   12 1
  21   10   40 1
  22   11   12 2
  23   11   16 1
  24   11   17 1
  25   12   13 1
  26   13   14 2
  27   13   22 1
  28   14   15 1
  29   14   21 1
  30   15   16 am
  31   15   20 2
  32   16   18 1
  33   17   19 1
  34   18   19 1
  35   18   41 1
  36   18   42 1
  37   19   43 1
  38   19   44 1
  39   21   45 1
  40   21   46 1
  41   21   47 1
  42   22   23 1
  43   22   48 1
  44   23   24 ar
  45   23   28 ar
  46   24   25 ar
  47   24   30 1
  48   25   26 ar
  49   25   49 1
  50   26   27 ar
  51   26   29 1
  52   27   28 ar
  53   27   50 1
  54   28   51 1

#	End of record

