#	Name: ASD00069388
#	Creating user name:	WinNT
#	Creation time:	15. 06. 2019 18:29

#	Modifying user name:	WinNT
#	Modification time:	15. 06. 2019 18:29

#	Program:	/corina/corina34_cracker 3.40 0067  02.08.2006

@<TRIPOS>MOLECULE
ASD00069388
  40   41    0    0    0
SMALL
NO_CHARGES


@<TRIPOS>ATOM
   1 C1            -0.0168     1.3912     0.0097 C.ar    
   2 C2             0.0021    -0.0041     0.0020 C.ar    
   3 N3             1.1731    -0.6338    -0.0125 N.ar    
   4 C4             2.3073     0.0500    -0.0197 C.ar    
   5 N5             2.3207     1.3748    -0.0127 N.ar    
   6 C6             1.1900     2.0673     0.0018 C.ar    
   7 Cl7            1.2237     3.8029     0.0102 Cl      
   8 N8            -1.1823    -0.7230     0.0099 N.3     
   9 C9            -0.9190    -2.1783    -0.0005 C.3     
  10 C10           -1.9806    -0.4471    -1.2119 C.3     
  11 C11           -2.9363    -1.6639    -1.2932 C.3     
  12 C12           -2.0456    -2.8353    -0.8194 C.3     
  13 C13           -2.8517    -3.7936     0.0596 C.3     
  14 C14           -1.4716    -3.5684    -2.0044 C.2     
  15 O15           -0.2747    -3.6178    -2.1624 O.2     
  16 N16            3.5088    -0.6366    -0.0344 N.pl3   
  17 C17            4.7742     0.1015    -0.0425 C.3     
  18 O18           -2.2900    -4.1664    -2.8844 O.3     
  19 C19           -1.6675    -4.8540    -4.0015 C.3     
  20 O20           -3.9309    -4.3424    -0.6993 O.3     
  21 C21           -4.7509    -5.2556     0.0327 C.3     
  22 H22           -0.9523     1.9309     0.0171 H       
  23 H23            0.0450    -2.3779    -0.4683 H       
  24 H24           -0.9272    -2.5645     1.0188 H       
  25 H25           -2.5451     0.4788    -1.1017 H       
  26 H26           -1.3368    -0.4042    -2.0905 H       
  27 H27           -3.7871    -1.5315    -0.6248 H       
  28 H28           -3.2708    -1.8238    -2.3182 H       
  29 H29           -2.2049    -4.5993     0.4068 H       
  30 H30           -3.2496    -3.2518     0.9177 H       
  31 H31            3.5130    -1.6066    -0.0393 H       
  32 H32            5.6058    -0.6031    -0.0538 H       
  33 H33            4.8209     0.7329    -0.9298 H       
  34 H34            4.8375     0.7239     0.8501 H       
  35 H35           -1.0802    -4.1439    -4.5836 H       
  36 H36           -1.0156    -5.6424    -3.6253 H       
  37 H37           -2.4394    -5.2920    -4.6343 H       
  38 H38           -4.1435    -6.0917     0.3793 H       
  39 H39           -5.1881    -4.7442     0.8902 H       
  40 H40           -5.5464    -5.6275    -0.6130 H       
@<TRIPOS>BOND
   1    1    2 ar
   2    1    6 ar
   3    1   22 1
   4    2    3 ar
   5    2    8 1
   6    3    4 ar
   7    4    5 ar
   8    4   16 1
   9    5    6 ar
  10    6    7 1
  11    8    9 1
  12    8   10 1
  13    9   12 1
  14    9   23 1
  15    9   24 1
  16   10   11 1
  17   10   25 1
  18   10   26 1
  19   11   12 1
  20   11   27 1
  21   11   28 1
  22   12   13 1
  23   12   14 1
  24   13   20 1
  25   13   29 1
  26   13   30 1
  27   14   15 2
  28   14   18 1
  29   16   17 1
  30   16   31 1
  31   17   32 1
  32   17   33 1
  33   17   34 1
  34   18   19 1
  35   19   35 1
  36   19   36 1
  37   19   37 1
  38   20   21 1
  39   21   38 1
  40   21   39 1
  41   21   40 1

#	End of record

