#	Name: ASD01410071
#	Creating user name:	WinNT
#	Creation time:	15. 06. 2019 19:16

#	Modifying user name:	WinNT
#	Modification time:	15. 06. 2019 19:16

#	Program:	/corina/corina34_cracker 3.40 0067  02.08.2006

@<TRIPOS>MOLECULE
ASD01410071
  68   71    0    0    0
SMALL
NO_CHARGES


@<TRIPOS>ATOM
   1 C1            -0.0169     1.3986     0.0097 C.ar    
   2 C2             0.0021    -0.0041     0.0020 C.ar    
   3 C3            -1.1621    -0.7094     0.0098 C.ar    
   4 C4            -2.3912    -0.0347     0.0256 C.ar    
   5 C5            -2.4204     1.3751     0.0335 C.ar    
   6 C6            -1.2305     2.0850     0.0308 C.ar    
   7 C7            -3.7374    -0.4722     0.0366 C.2     
   8 C8            -4.5317     0.6283     0.0504 C.2     
   9 N9            -3.7465     1.7566     0.0487 N.pl3   
  10 C10           -6.0103     0.6156     0.0650 C.ar    
  11 C11           -6.7099     1.4583     0.9300 C.ar    
  12 C12           -8.0893     1.4419     0.9383 C.ar    
  13 C13           -8.7792     0.5924     0.0917 C.ar    
  14 C14           -8.0917    -0.2456    -0.7682 C.ar    
  15 C15           -6.7122    -0.2351    -0.7902 C.ar    
  16 C16           -4.2054    -1.9047     0.0331 C.3     
  17 C17           -3.6903    -2.6064    -1.2251 C.3     
  18 C18           -4.1654    -4.0608    -1.2287 C.3     
  19 C19           -3.6262    -4.7765     0.0115 C.3     
  20 C20           -4.1413    -4.0748     1.2697 C.3     
  21 C21           -3.6662    -2.6204     1.2732 C.3     
  22 C22            1.2513     2.1499     0.0017 C.2     
  23 O23            2.4258     1.4892    -0.0131 O.3     
  24 C24           -4.2368     3.1371     0.0614 C.3     
  25 C25           -4.3904     3.6025     1.4865 C.2     
  26 N26           -4.8314     4.8497     1.7443 N.am    
  27 O27            1.2377     3.3650     0.0083 O.2     
  28 O28           -4.1172     2.8547     2.4014 O.2     
  29 C29           -4.9807     5.3021     3.1296 C.3     
  30 C30           -3.6931     5.9329     3.5936 C.2     
  31 C31           -5.1614     5.7530     0.6391 C.3     
  32 N32           -3.5961     6.4246     4.8447 N.am    
  33 O33           -2.7442     5.9981     2.8412 O.2     
  34 C34           -2.3444     7.0377     5.2958 C.3     
  35 C35           -4.7424     6.3458     5.7536 C.3     
  36 H36            0.9465    -0.5277    -0.0105 H       
  37 H37           -1.1391    -1.7891     0.0034 H       
  38 H38           -1.2430     3.1649     0.0368 H       
  39 H39           -6.1725     2.1216     1.5916 H       
  40 H40           -8.6319     2.0932     1.6074 H       
  41 H41           -9.8591     0.5831     0.1024 H       
  42 H42           -8.6361    -0.9063    -1.4265 H       
  43 H43           -6.1767    -0.8894    -1.4621 H       
  44 H44           -5.2951    -1.9310     0.0434 H       
  45 H45           -4.0744    -2.0965    -2.1086 H       
  46 H46           -2.6006    -2.5801    -1.2354 H       
  47 H47           -5.2550    -4.0871    -1.2183 H       
  48 H48           -3.7984    -4.5607    -2.1250 H       
  49 H49           -3.9646    -5.8126     0.0089 H       
  50 H50           -2.5365    -4.7502     0.0011 H       
  51 H51           -5.2309    -4.1011     1.2800 H       
  52 H52           -3.7572    -4.5846     2.1531 H       
  53 H53           -2.5766    -2.5941     1.2629 H       
  54 H54           -4.0332    -2.1205     2.1696 H       
  55 H55            3.2308     2.0250    -0.0179 H       
  56 H56           -3.5251     3.7802    -0.4561 H       
  57 H57           -5.2023     3.1844    -0.4423 H       
  58 H58           -5.7858     6.0346     3.1878 H       
  59 H59           -5.2180     4.4500     3.7665 H       
  60 H60           -6.2116     5.6330     0.3730 H       
  61 H61           -4.9796     6.7832     0.9452 H       
  62 H62           -4.5386     5.5148    -0.2232 H       
  63 H63           -2.3617     8.1047     5.0736 H       
  64 H64           -2.2351     6.8922     6.3705 H       
  65 H65           -1.5050     6.5726     4.7789 H       
  66 H66           -5.5763     5.8615     5.2456 H       
  67 H67           -4.4679     5.7664     6.6351 H       
  68 H68           -5.0357     7.3510     6.0564 H       
@<TRIPOS>BOND
   1    1    2 ar
   2    1   22 1
   3    1    6 ar
   4    2    3 ar
   5    2   36 1
   6    3    4 ar
   7    3   37 1
   8    4    5 ar
   9    4    7 1
  10    5    6 ar
  11    5    9 1
  12    6   38 1
  13    7    8 2
  14    7   16 1
  15    8    9 1
  16    8   10 1
  17    9   24 1
  18   10   11 ar
  19   10   15 ar
  20   11   12 ar
  21   11   39 1
  22   12   13 ar
  23   12   40 1
  24   13   14 ar
  25   13   41 1
  26   14   15 ar
  27   14   42 1
  28   15   43 1
  29   16   17 1
  30   16   21 1
  31   16   44 1
  32   17   18 1
  33   17   45 1
  34   17   46 1
  35   18   19 1
  36   18   47 1
  37   18   48 1
  38   19   20 1
  39   19   49 1
  40   19   50 1
  41   20   21 1
  42   20   51 1
  43   20   52 1
  44   21   53 1
  45   21   54 1
  46   22   23 1
  47   22   27 2
  48   23   55 1
  49   24   25 1
  50   24   56 1
  51   24   57 1
  52   25   26 am
  53   25   28 2
  54   26   29 1
  55   26   31 1
  56   29   30 1
  57   29   58 1
  58   29   59 1
  59   30   32 am
  60   30   33 2
  61   31   60 1
  62   31   61 1
  63   31   62 1
  64   32   34 1
  65   32   35 1
  66   34   63 1
  67   34   64 1
  68   34   65 1
  69   35   66 1
  70   35   67 1
  71   35   68 1

#	End of record

