#	Name: ASD04590375
#	Creating user name:	WinNT
#	Creation time:	15. 06. 2019 20:50

#	Modifying user name:	WinNT
#	Modification time:	15. 06. 2019 20:50

#	Program:	/corina/corina34_cracker 3.40 0067  02.08.2006

@<TRIPOS>MOLECULE
ASD04590375
  40   42    0    0    0
SMALL
NO_CHARGES


@<TRIPOS>ATOM
   1 C1            -0.0167     1.3832     0.0096 C.ar    
   2 C2             0.0021    -0.0041     0.0020 C.ar    
   3 C3             1.1969    -0.6869    -0.0126 C.ar    
   4 C4             2.4020     0.0223    -0.0204 C.ar    
   5 C5             2.3769     1.4283    -0.0131 C.ar    
   6 C6             1.1624     2.0986     0.0022 C.ar    
   7 N7             3.7040    -0.3552    -0.0350 N.2     
   8 C8             4.4709     0.7083    -0.0371 C.2     
   9 N9             3.6969     1.8375    -0.0238 N.pl3   
  10 C10            5.9483     0.6906    -0.0508 C.2     
  11 C11            6.7655    -0.4630    -0.0642 C.2     
  12 C12            8.0575    -0.0542    -0.0740 C.2     
  13 N13            8.0646     1.3049    -0.0671 N.pl3   
  14 N14            6.7361     1.7481    -0.0584 N.2     
  15 N15            6.3181    -1.7954    -0.0662 N.am    
  16 C16            7.2099    -2.8057    -0.0796 C.2     
  17 N17            6.7808    -4.0834    -0.0815 N.am    
  18 O18            8.4017    -2.5646    -0.0901 O.2     
  19 C19            7.7503    -5.1816    -0.0962 C.3     
  20 C20            8.6406    -5.0926     1.1449 C.3     
  21 C21            7.0064    -6.5186    -0.0953 C.3     
  22 C22            8.6163    -5.0807    -1.3534 C.3     
  23 H23           -0.9614     1.9066     0.0170 H       
  24 H24           -0.9283    -0.5525     0.0080 H       
  25 H25            1.2037    -1.7669    -0.0178 H       
  26 H26            1.1403     3.1784     0.0075 H       
  27 H27            4.0156     2.7537    -0.0226 H       
  28 H28            8.9270    -0.6947    -0.0850 H       
  29 H29            8.8531     1.8699    -0.0715 H       
  30 H30            5.3674    -1.9877    -0.0578 H       
  31 H31            5.8301    -4.2757    -0.0732 H       
  32 H32            8.0236    -5.1645     2.0406 H       
  33 H33            9.3619    -5.9097     1.1340 H       
  34 H34            9.1706    -4.1401     1.1443 H       
  35 H35            6.3721    -6.5821    -0.9795 H       
  36 H36            7.7277    -7.3358    -0.1062 H       
  37 H37            6.3894    -6.5905     0.8004 H       
  38 H38            9.1463    -4.1282    -1.3540 H       
  39 H39            9.3376    -5.8979    -1.3643 H       
  40 H40            7.9821    -5.1442    -2.2376 H       
@<TRIPOS>BOND
   1    1    2 ar
   2    1    6 ar
   3    1   23 1
   4    2    3 ar
   5    2   24 1
   6    3    4 ar
   7    3   25 1
   8    4    5 ar
   9    4    7 1
  10    5    6 ar
  11    5    9 1
  12    6   26 1
  13    7    8 2
  14    8    9 1
  15    8   10 1
  16    9   27 1
  17   10   11 1
  18   10   14 2
  19   11   12 2
  20   11   15 1
  21   12   13 1
  22   12   28 1
  23   13   14 1
  24   13   29 1
  25   15   16 am
  26   15   30 1
  27   16   17 am
  28   16   18 2
  29   17   19 1
  30   17   31 1
  31   19   20 1
  32   19   21 1
  33   19   22 1
  34   20   32 1
  35   20   33 1
  36   20   34 1
  37   21   35 1
  38   21   36 1
  39   21   37 1
  40   22   38 1
  41   22   39 1
  42   22   40 1

#	End of record

