#	Name: ASD03910013
#	Creating user name:	WinNT
#	Creation time:	15. 06. 2019 20:47

#	Modifying user name:	WinNT
#	Modification time:	15. 06. 2019 20:47

#	Program:	/corina/corina34_cracker 3.40 0067  02.08.2006

@<TRIPOS>MOLECULE
ASD03910013
  44   47    0    0    0
SMALL
NO_CHARGES


@<TRIPOS>ATOM
   1 C1            -0.0185     1.5135     0.0104 C.3     
   2 C2             0.0021    -0.0041     0.0020 C.3     
   3 C3            -1.3581    -0.5408     0.4826 C.3     
   4 C4            -1.5387    -0.1822     1.9541 C.3     
   5 C5            -1.4524     1.3046     2.1779 C.3     
   6 C6            -0.7379     2.1311     1.1702 C.3     
   7 O7             1.3249     2.0308     0.0003 O.3     
   8 O8             0.1932    -0.5165    -1.3168 O.3     
   9 P9             1.5263    -0.3675    -2.1977 P.3     
  10 O10            2.6743    -0.9572    -1.4733 O.2     
  11 O11            1.3322    -1.1138    -3.6110 O.3     
  12 O12            1.7854     1.2176    -2.4421 O.3     
  13 Na13           2.9185    -1.0064    -4.8077 Du      
  14 P14            2.1282     2.3688    -1.3565 P.3     
  15 O15            1.6641     3.8037    -1.9203 O.3     
  16 Na16           2.5811     4.3483    -3.6004 Du      
  17 O17            3.5832     2.3836    -1.0859 O.2     
  18 O18            0.1940     3.0912     1.8625 O.3     
  19 P19           -0.5069     3.8460     3.1304 P.3     
  20 O20            0.2502     5.2482     3.3601 O.3     
  21 O21           -2.0649     4.1402     2.9974 O.3     
  22 O22           -0.3006     3.0116     4.3351 O.2     
  23 Na23          -0.4702     6.3183     4.8754 Du      
  24 O24           -2.7158     1.9495     2.0981 O.3     
  25 P25           -3.3132     3.0521     3.0886 P.3     
  26 O26           -3.4786     2.5229     4.4608 O.2     
  27 O27           -4.6886     3.6732     2.5279 O.3     
  28 Na28          -5.4935     5.0565     3.7106 Du      
  29 O29           -2.7962    -0.6656     2.4478 O.3     
  30 P30           -3.1055    -2.2499     2.6010 P.3     
  31 O31           -2.3444    -2.8154     3.7374 O.2     
  32 O32           -4.6832    -2.4950     2.8080 O.3     
  33 Na33          -5.1854    -4.4101     3.0085 Du      
  34 P34           -1.3389    -2.3671     0.3081 P.3     
  35 O35            0.0409    -2.9651     0.8831 O.3     
  36 O36           -2.6024    -2.9143     1.1920 O.3     
  37 O37           -1.5052    -2.7456    -1.1130 O.2     
  38 Na38           0.1827    -4.9455     0.7495 Du      
  39 H39           -0.5152     1.8504    -0.8995 H       
  40 H40            0.7916    -0.3632     0.6621 H       
  41 H41           -2.1628    -0.1056    -0.1100 H       
  42 H42           -0.7454    -0.6633     2.5262 H       
  43 H43           -1.0296     1.4958     3.1641 H       
  44 H44           -1.4981     2.7768     0.7305 H       
@<TRIPOS>BOND
   1    1    2 1
   2    1    7 1
   3    1    6 1
   4    1   39 1
   5    2    3 1
   6    2    8 1
   7    2   40 1
   8    3    4 1
   9    3   34 1
  10    3   41 1
  11    4    5 1
  12    4   29 1
  13    4   42 1
  14    5    6 1
  15    5   24 1
  16    5   43 1
  17    6   18 1
  18    6   44 1
  19    7   14 1
  20    8    9 1
  21    9   10 2
  22    9   11 1
  23    9   12 1
  24   11   13 1
  25   12   14 1
  26   14   15 1
  27   14   17 2
  28   15   16 1
  29   18   19 1
  30   19   20 1
  31   19   21 1
  32   19   22 2
  33   20   23 1
  34   21   25 1
  35   24   25 1
  36   25   26 2
  37   25   27 1
  38   27   28 1
  39   29   30 1
  40   30   31 2
  41   30   32 1
  42   30   36 1
  43   32   33 1
  44   34   35 1
  45   34   36 1
  46   34   37 2
  47   35   38 1

#	End of record

