#	Name: ASD01830039
#	Creating user name:	WinNT
#	Creation time:	15. 06. 2019 19:36

#	Modifying user name:	WinNT
#	Modification time:	15. 06. 2019 19:36

#	Program:	/corina/corina34_cracker 3.40 0067  02.08.2006

@<TRIPOS>MOLECULE
ASD01830039
  78   79    0    0    0
SMALL
NO_CHARGES


@<TRIPOS>ATOM
   1 Cl1            0.0000     0.0000     0.0000 Cl      
   2 H2             0.0000     1.3700     0.0000 H       
   3 Cl3            5.0000     6.3700     5.0000 Cl      
   4 H4             5.0000     7.7400     5.0000 H       
   5 Cl5           10.0000    12.7400    10.0000 Cl      
   6 H6            10.0000    14.1100    10.0000 H       
   7 C7            17.2385    27.1029    15.9468 C.3     
   8 C8            17.2592    25.5731    15.9384 C.3     
   9 H9            17.7573    25.2141    15.0378 H       
  10 C10           15.8165    25.0282    15.9931 C.3     
  11 C11           15.9453    23.7905    16.9197 C.3     
  12 C12           17.0121    24.2697    17.9354 C.3     
  13 N13           17.9637    25.0744    17.1338 N.3     
  14 C14           18.5117    26.1852    17.9236 C.3     
  15 C15           19.0048    25.6641    19.2488 C.2     
  16 S16           18.0520    25.5301    20.7251 S.3     
  17 C17           19.4515    24.8746    21.5697 C.2     
  18 N18           19.4762    24.4903    22.9022 N.pl3   
  19 C19           20.6452    23.9850    23.4580 C.ar    
  20 N20           21.7489    23.8707    22.7220 N.ar    
  21 C21           22.8617    23.3932    23.2409 C.ar    
  22 N22           22.9356    23.0095    24.4991 N.ar    
  23 C23           21.8765    23.0914    25.3021 C.ar    
  24 N24           21.9637    22.6852    26.6264 N.3     
  25 C25           20.9530    21.6629    26.9314 C.3     
  26 C26           21.0298    21.3005    28.4164 C.3     
  27 N27           22.3800    20.8120    28.7296 N.3     
  28 C28           22.4723    20.3821    30.1313 C.3     
  29 C29           23.9364    20.1183    30.4884 C.3     
  30 C30           24.0311    19.6773    31.9263 C.2     
  31 O31           25.2273    19.3886    32.4624 O.3     
  32 O32           23.0302    19.5836    32.5967 O.2     
  33 C33           23.3906    21.8343    28.4247 C.3     
  34 C34           23.3139    22.1967    26.9396 C.3     
  35 C35           20.6815    23.5961    24.7948 C.ar    
  36 F36           19.5852    23.7005    25.5774 F       
  37 N37           20.4555    24.8072    20.7512 N.2     
  38 C38           20.2458    25.2158    19.5069 C.2     
  39 C39           21.3084    25.1847    18.4726 C.ar    
  40 C40           20.9839    24.9130    17.1448 C.ar    
  41 C41           21.9764    24.8851    16.1862 C.ar    
  42 C42           23.2922    25.1265    16.5417 C.ar    
  43 Cl43          24.5359    25.0900    15.3311 Cl      
  44 C44           23.6198    25.3974    17.8595 C.ar    
  45 C45           22.6343    25.4327    18.8245 C.ar    
  46 C46           25.0543    25.6597    18.2394 C.3     
  47 F47           25.1351    25.9064    19.6141 F       
  48 F48           25.8332    24.5424    17.9195 F       
  49 F49           25.5264    26.7737    17.5371 F       
  50 H50           18.2611    27.4802    15.9391 H       
  51 H51           16.7113    27.4640    15.0638 H       
  52 H52           16.7283    27.4544    16.8436 H       
  53 H53           15.1420    25.7661    16.4274 H       
  54 H54           15.4782    24.7326    15.0000 H       
  55 H55           15.0000    23.5759    17.4182 H       
  56 H56           16.2978    22.9216    16.3638 H       
  57 H57           16.5509    24.8842    18.7086 H       
  58 H58           17.5216    23.4158    18.3819 H       
  59 H59           19.3399    26.6423    17.3820 H       
  60 H60           17.7334    26.9294    18.0927 H       
  61 H61           18.6774    24.5742    23.4461 H       
  62 H62           23.7392    23.3136    22.6164 H       
  63 H63           19.9611    22.0527    26.7030 H       
  64 H64           21.1421    20.7738    26.3298 H       
  65 H65           20.8139    22.1835    29.0178 H       
  66 H66           20.3006    20.5214    28.6388 H       
  67 H67           22.0758    21.1647    30.7782 H       
  68 H68           21.8941    19.4685    30.2699 H       
  69 H69           24.3329    19.3358    29.8415 H       
  70 H70           24.5145    21.0319    30.3498 H       
  71 H71           25.2378    19.1100    33.3884 H       
  72 H72           23.2016    22.7234    29.0262 H       
  73 H73           24.3826    21.4445    28.6531 H       
  74 H74           23.5298    21.3137    26.3382 H       
  75 H75           24.0431    22.9758    26.7173 H       
  76 H76           19.9576    24.7242    16.8664 H       
  77 H77           21.7260    24.6743    15.1570 H       
  78 H78           22.8903    25.6481    19.8514 H       
@<TRIPOS>BOND
   1    1    2 1
   2    3    4 1
   3    5    6 1
   4    7    8 1
   5    7   50 1
   6    7   51 1
   7    7   52 1
   8    8    9 1
   9    8   13 1
  10    8   10 1
  11   10   11 1
  12   10   53 1
  13   10   54 1
  14   11   12 1
  15   11   55 1
  16   11   56 1
  17   12   13 1
  18   12   57 1
  19   12   58 1
  20   13   14 1
  21   14   15 1
  22   14   59 1
  23   14   60 1
  24   15   38 2
  25   15   16 1
  26   16   17 1
  27   17   18 1
  28   17   37 2
  29   18   19 1
  30   18   61 1
  31   19   35 ar
  32   19   20 ar
  33   20   21 ar
  34   21   22 ar
  35   21   62 1
  36   22   23 ar
  37   23   24 1
  38   23   35 ar
  39   24   34 1
  40   24   25 1
  41   25   26 1
  42   25   63 1
  43   25   64 1
  44   26   27 1
  45   26   65 1
  46   26   66 1
  47   27   28 1
  48   27   33 1
  49   28   29 1
  50   28   67 1
  51   28   68 1
  52   29   30 1
  53   29   69 1
  54   29   70 1
  55   30   31 1
  56   30   32 2
  57   31   71 1
  58   33   34 1
  59   33   72 1
  60   33   73 1
  61   34   74 1
  62   34   75 1
  63   35   36 1
  64   37   38 1
  65   38   39 1
  66   39   45 ar
  67   39   40 ar
  68   40   41 ar
  69   40   76 1
  70   41   42 ar
  71   41   77 1
  72   42   43 1
  73   42   44 ar
  74   44   45 ar
  75   44   46 1
  76   45   78 1
  77   46   47 1
  78   46   48 1
  79   46   49 1

#	End of record

