#	Name: ASD01814247
#	Creating user name:	WinNT
#	Creation time:	15. 06. 2019 19:32

#	Modifying user name:	WinNT
#	Modification time:	15. 06. 2019 19:32

#	Program:	/corina/corina34_cracker 3.40 0067  02.08.2006

@<TRIPOS>MOLECULE
ASD01814247
  37   40    0    0    0
SMALL
NO_CHARGES


@<TRIPOS>ATOM
   1 C1            -0.0167     1.3820     0.0096 C.ar    
   2 C2             0.0021    -0.0041     0.0020 C.ar    
   3 C3             1.1959    -0.6932    -0.0130 C.ar    
   4 C4             2.4016     0.0019    -0.0208 C.ar    
   5 C5             2.3831     1.4075    -0.0131 C.ar    
   6 C6             1.1665     2.0939     0.0022 C.ar    
   7 N7             3.6010    -0.6771    -0.0354 N.pl3   
   8 C8             4.7870    -0.0549    -0.0424 C.2     
   9 C9             4.8957     1.3208    -0.0361 C.2     
  10 C10            3.6667     2.1313    -0.0214 C.2     
  11 C11            6.2161     1.9660    -0.0437 C.2     
  12 O12            6.3092     3.3109    -0.0374 O.3     
  13 O13            7.2243     1.2870    -0.0558 O.2     
  14 O14            3.7090     3.3491    -0.0157 O.2     
  15 C15            3.5775    -2.1419    -0.0430 C.3     
  16 C16            3.5565    -2.6366    -1.4663 C.2     
  17 F17            1.1476     3.4448     0.0096 F       
  18 C18            2.4501    -3.0337    -2.0630 C.2     
  19 S19            2.7607    -3.5482    -3.7097 S.3     
  20 C20            4.4792    -3.2014    -3.5656 C.ar    
  21 C21            4.7539    -2.7065    -2.2880 C.ar    
  22 C22            5.5161    -3.3423    -4.4935 C.ar    
  23 C23            6.8025    -3.0013    -4.1497 C.ar    
  24 C24            7.0801    -2.5146    -2.8782 C.ar    
  25 C25            6.0839    -2.3630    -1.9621 C.ar    
  26 Cl26           8.7092    -2.0876    -2.4568 Cl      
  27 H27           -0.9604     1.9071     0.0169 H       
  28 H28           -0.9295    -0.5505     0.0083 H       
  29 H29            1.1956    -1.7731    -0.0185 H       
  30 H30            5.6884    -0.6497    -0.0531 H       
  31 H31            7.1990     3.6894    -0.0429 H       
  32 H32            4.4662    -2.5222     0.4608 H       
  33 H33            2.6865    -2.4937     0.4772 H       
  34 H34            1.4761    -3.0415    -1.5964 H       
  35 H35            5.3054    -3.7204    -5.4829 H       
  36 H36            7.5998    -3.1122    -4.8698 H       
  37 H37            6.3140    -1.9837    -0.9774 H       
@<TRIPOS>BOND
   1    1    2 ar
   2    1    6 ar
   3    1   27 1
   4    2    3 ar
   5    2   28 1
   6    3    4 ar
   7    3   29 1
   8    4    5 ar
   9    4    7 1
  10    5    6 ar
  11    5   10 1
  12    6   17 1
  13    7    8 1
  14    7   15 1
  15    8    9 2
  16    8   30 1
  17    9   10 1
  18    9   11 1
  19   10   14 2
  20   11   12 1
  21   11   13 2
  22   12   31 1
  23   15   16 1
  24   15   32 1
  25   15   33 1
  26   16   18 2
  27   16   21 1
  28   18   19 1
  29   18   34 1
  30   19   20 1
  31   20   21 ar
  32   20   22 ar
  33   21   25 ar
  34   22   23 ar
  35   22   35 1
  36   23   24 ar
  37   23   36 1
  38   24   25 ar
  39   24   26 1
  40   25   37 1

#	End of record

