#	Name: ASD01883293
#	Creating user name:	WinNT
#	Creation time:	15. 06. 2019 19:46

#	Modifying user name:	WinNT
#	Modification time:	15. 06. 2019 19:46

#	Program:	/corina/corina34_cracker 3.40 0067  02.08.2006

@<TRIPOS>MOLECULE
ASD01883293
  71   74    0    0    0
SMALL
NO_CHARGES


@<TRIPOS>ATOM
   1 N1            -0.0546     1.4107     0.0216 N.am    
   2 C2            -0.0250     0.0681     0.1116 C.2     
   3 C3            -1.2377    -0.6667     0.1214 C.2     
   4 C4            -2.4517     0.0345     0.0360 C.2     
   5 C5            -2.4165     1.4388    -0.0560 C.2     
   6 C6            -1.2285     2.0871    -0.0556 C.2     
   7 O7             1.0429    -0.5154     0.1841 O.2     
   8 C8            -1.2249    -2.0955     0.2160 C.1     
   9 N9            -1.2148    -3.2290     0.2911 N.1     
  10 C10            1.2058     2.1574     0.0131 C.3     
  11 C11            1.6913     2.3220    -1.4285 C.3     
  12 C12            3.0076     3.1018    -1.4375 C.3     
  13 C13            3.5568     3.1589    -2.8643 C.3     
  14 C14            2.7616     4.5235    -0.9284 C.3     
  15 C15           -3.7427    -0.6889     0.0420 C.ar    
  16 C16           -4.6362    -0.5136     1.1005 C.ar    
  17 C17           -5.8379    -1.1864     1.1060 C.ar    
  18 C18           -6.1626    -2.0440     0.0529 C.ar    
  19 C19           -5.2689    -2.2194    -1.0057 C.ar    
  20 C20           -4.0696    -1.5424    -1.0136 C.ar    
  21 C21           -7.4527    -2.7670     0.0590 C.2     
  22 N22           -7.9348    -3.2755     1.2102 N.am    
  23 C23           -9.2703    -3.8895     1.2635 C.3     
  24 C24           -9.1449    -5.2718     1.9130 C.3     
  25 N25           -8.4696    -5.1401     3.2109 N.3     
  26 C26           -7.0980    -4.6395     3.0495 C.3     
  27 C27           -7.1370    -3.2367     2.4452 C.3     
  28 C28           -8.4824    -6.4138     3.9426 C.3     
  29 O29           -8.0783    -2.9025    -0.9743 O.2     
  30 C30           -7.5788    -6.3119     5.1444 C.ar    
  31 C31           -8.0865    -5.8768     6.3544 C.ar    
  32 C32           -7.2595    -5.7829     7.4584 C.ar    
  33 C33           -5.9187    -6.1260     7.3504 C.ar    
  34 C34           -5.4127    -6.5620     6.1348 C.ar    
  35 C35           -6.2447    -6.6590     5.0361 C.ar    
  36 O36           -5.1031    -6.0342     8.4339 O.3     
  37 Cl37          -7.8969    -5.2361     8.9777 Cl      
  38 C38           -3.7351    -6.4037     8.2492 C.3     
  39 F39           -3.1581    -5.5834     7.2738 F       
  40 F40           -3.0437    -6.2507     9.4558 F       
  41 F41           -3.6642    -7.7388     7.8372 F       
  42 H42           -3.3375     1.9989    -0.1230 H       
  43 H43           -1.2142     3.1647    -0.1267 H       
  44 H44            1.0490     3.1400     0.4581 H       
  45 H45            1.9545     1.6131     0.5887 H       
  46 H46            1.8480     1.3394    -1.8735 H       
  47 H47            0.9426     2.8663    -2.0041 H       
  48 H48            3.7293     2.6038    -0.7900 H       
  49 H49            2.8351     3.6569    -3.5118 H       
  50 H50            4.4946     3.7144    -2.8707 H       
  51 H51            3.7321     2.1460    -3.2270 H       
  52 H52            3.6994     5.0790    -0.9347 H       
  53 H53            2.0399     5.0215    -1.5758 H       
  54 H54            2.3703     4.4828     0.0882 H       
  55 H55           -4.3849     0.1495     1.9152 H       
  56 H56           -6.5288    -1.0510     1.9249 H       
  57 H57           -5.5199    -2.8829    -1.8200 H       
  58 H58           -3.3786    -1.6777    -1.8325 H       
  59 H59           -9.9370    -3.2648     1.8579 H       
  60 H60           -9.6658    -3.9941     0.2532 H       
  61 H61          -10.1383    -5.6955     2.0612 H       
  62 H62           -8.5627    -5.9268     1.2648 H       
  63 H63           -6.6068    -4.6045     4.0219 H       
  64 H64           -6.5443    -5.3032     2.3855 H       
  65 H65           -6.1230    -2.9077     2.2178 H       
  66 H66           -7.5992    -2.5467     3.1511 H       
  67 H67           -9.4984    -6.6347     4.2697 H       
  68 H68           -8.1294    -7.2118     3.2893 H       
  69 H69           -9.1296    -5.6098     6.4373 H       
  70 H70           -4.3699    -6.8295     6.0482 H       
  71 H71           -5.8509    -6.9989     4.0897 H       
@<TRIPOS>BOND
   1    1    2 am
   2    1   10 1
   3    1    6 1
   4    2    3 1
   5    2    7 2
   6    3    4 2
   7    3    8 1
   8    4    5 1
   9    4   15 1
  10    5    6 2
  11    5   42 1
  12    6   43 1
  13    8    9 3
  14   10   11 1
  15   10   44 1
  16   10   45 1
  17   11   12 1
  18   11   46 1
  19   11   47 1
  20   12   13 1
  21   12   14 1
  22   12   48 1
  23   13   49 1
  24   13   50 1
  25   13   51 1
  26   14   52 1
  27   14   53 1
  28   14   54 1
  29   15   16 ar
  30   15   20 ar
  31   16   17 ar
  32   16   55 1
  33   17   18 ar
  34   17   56 1
  35   18   19 ar
  36   18   21 1
  37   19   20 ar
  38   19   57 1
  39   20   58 1
  40   21   22 am
  41   21   29 2
  42   22   23 1
  43   22   27 1
  44   23   24 1
  45   23   59 1
  46   23   60 1
  47   24   25 1
  48   24   61 1
  49   24   62 1
  50   25   26 1
  51   25   28 1
  52   26   27 1
  53   26   63 1
  54   26   64 1
  55   27   65 1
  56   27   66 1
  57   28   30 1
  58   28   67 1
  59   28   68 1
  60   30   31 ar
  61   30   35 ar
  62   31   32 ar
  63   31   69 1
  64   32   33 ar
  65   32   37 1
  66   33   34 ar
  67   33   36 1
  68   34   35 ar
  69   34   70 1
  70   35   71 1
  71   36   38 1
  72   38   39 1
  73   38   40 1
  74   38   41 1

#	End of record

