#	Name: ASD07930105
#	Creating user name:	WinNT
#	Creation time:	15. 06. 2019 21:11

#	Modifying user name:	WinNT
#	Modification time:	15. 06. 2019 21:11

#	Program:	/corina/corina34_cracker 3.40 0067  02.08.2006

@<TRIPOS>MOLECULE
ASD07930105
  29   31    0    0    0
SMALL
NO_CHARGES


@<TRIPOS>ATOM
   1 O1            -0.0163     1.3542     0.0095 O.3     
   2 C2             0.0021    -0.0041     0.0020 C.2     
   3 C3             0.9975    -0.6620    -0.8756 C.2     
   4 N4             1.9964     0.0884    -1.4448 N.am    
   5 C5             2.0296     1.5445    -1.2845 C.3     
   6 C6             1.3115     1.9598     0.0001 C.3     
   7 C7             0.9040    -2.0033    -1.1019 C.2     
   8 C8             1.8486    -2.6633    -1.8960 C.2     
   9 C9             2.8810    -1.9488    -2.4391 C.2     
  10 C10            2.9569    -0.5102    -2.1822 C.2     
  11 O11           -0.7650    -0.6517     0.6864 O.2     
  12 O12            3.8821     0.1446    -2.6313 O.2     
  13 C13            4.0767    -2.3709    -4.5488 C.2     
  14 N14            5.0556    -3.1457    -4.9290 N.2     
  15 C15            5.4821    -3.8693    -3.8829 C.2     
  16 C16            4.7419    -3.5339    -2.8094 C.2     
  17 N17            3.8468    -2.5820    -3.2260 N.pl3   
  18 C18            6.5968    -4.8832    -3.9057 C.3     
  19 H19            3.0664     1.8778    -1.2403 H       
  20 H20            1.5386     2.0114    -2.1383 H       
  21 H21            1.2186     3.0453     0.0324 H       
  22 H22            1.8777     1.6129     0.8645 H       
  23 H23            0.0915    -2.5632    -0.6628 H       
  24 H24            1.7638    -3.7245    -2.0776 H       
  25 H25            3.5420    -1.6753    -5.1786 H       
  26 H26            4.8349    -3.9372    -1.8119 H       
  27 H27            7.5413    -4.3900    -3.6760 H       
  28 H28            6.4002    -5.6560    -3.1625 H       
  29 H29            6.6550    -5.3370    -4.8950 H       
@<TRIPOS>BOND
   1    1    2 1
   2    1    6 1
   3    2    3 1
   4    2   11 2
   5    3    4 1
   6    3    7 2
   7    4    5 1
   8    4   10 am
   9    5    6 1
  10    5   19 1
  11    5   20 1
  12    6   21 1
  13    6   22 1
  14    7    8 1
  15    7   23 1
  16    8    9 2
  17    8   24 1
  18    9   10 1
  19    9   17 1
  20   10   12 2
  21   13   14 2
  22   13   17 1
  23   13   25 1
  24   14   15 1
  25   15   16 2
  26   15   18 1
  27   16   17 1
  28   16   26 1
  29   18   27 1
  30   18   28 1
  31   18   29 1

#	End of record

