#	Name: ASD04590577
#	Creating user name:	WinNT
#	Creation time:	15. 06. 2019 20:51

#	Modifying user name:	WinNT
#	Modification time:	15. 06. 2019 20:51

#	Program:	/corina/corina34_cracker 3.40 0067  02.08.2006

@<TRIPOS>MOLECULE
ASD04590577
  67   72    0    0    0
SMALL
NO_CHARGES


@<TRIPOS>ATOM
   1 N1             2.1529     1.2192    -0.4867 N.ar    
   2 C2             2.2404    -0.1037    -0.4018 C.ar    
   3 C3             1.1014    -0.8603    -0.2573 C.ar    
   4 C4            -0.1404    -0.2295    -0.2202 C.ar    
   5 C5            -0.1939     1.1471    -0.3185 C.ar    
   6 C6             0.9965     1.8548    -0.4504 C.ar    
   7 C7             3.6158    -0.7136    -0.4873 C.3     
   8 C8             3.6242    -2.1215     0.1057 C.3     
   9 N9             2.4763    -2.8560    -0.4512 N.am    
  10 C10            1.1355    -2.3607    -0.1207 C.3     
  11 N11            0.9680     3.2434    -0.5449 N.pl3   
  12 C12            2.1530     3.9610    -0.5617 C.ar    
  13 N13            2.1047     5.2685    -0.7582 N.ar    
  14 C14            3.2205     5.9914    -0.7810 C.ar    
  15 C15            4.4518     5.3323    -0.5912 C.ar    
  16 C16            4.4525     3.9559    -0.3880 C.ar    
  17 N17            3.2960     3.3137    -0.3747 N.ar    
  18 N18            3.4680     7.3298    -0.9599 N.pl3   
  19 C19            4.8273     7.5832    -0.8951 C.ar    
  20 C20            5.4925     6.3656    -0.6654 C.ar    
  21 C21            5.5860     8.7410    -1.0089 C.ar    
  22 N22            6.8984     8.6952    -0.9039 N.ar    
  23 C23            7.5536     7.5682    -0.6883 C.ar    
  24 C24            6.8830     6.3703    -0.5611 C.ar    
  25 C25            2.4385     8.3468    -1.1882 C.3     
  26 C26            1.4767     8.3748     0.0014 C.3     
  27 C27            0.4015     9.4368    -0.2370 C.3     
  28 C28           -0.3742     9.1001    -1.5121 C.3     
  29 C29            0.5876     9.0721    -2.7016 C.3     
  30 C30            1.6628     8.0100    -2.4633 C.3     
  31 C31            2.6502    -3.9396    -1.2336 C.2     
  32 C32            4.0386    -4.3575    -1.6443 C.3     
  33 O33            1.6893    -4.5784    -1.6071 O.2     
  34 O34            3.9550    -5.3047    -2.7109 O.3     
  35 C35           -1.4494    10.1621    -1.7504 C.3     
  36 C36            4.7533    -4.9949    -0.4510 C.3     
  37 H37           -1.0466    -0.8077    -0.1166 H       
  38 H38           -1.1418     1.6642    -0.2934 H       
  39 H39            3.9217    -0.7630    -1.5323 H       
  40 H40            4.3198    -0.0889     0.0624 H       
  41 H41            4.5512    -2.6286    -0.1621 H       
  42 H42            3.5343    -2.0650     1.1905 H       
  43 H43            0.8891    -2.6374     0.9044 H       
  44 H44            0.4075    -2.8035    -0.8004 H       
  45 H45            0.1185     3.7085    -0.5989 H       
  46 H46            5.3797     3.4223    -0.2399 H       
  47 H47            5.0957     9.6870    -1.1853 H       
  48 H48            8.6306     7.5856    -0.6106 H       
  49 H49            7.4246     5.4525    -0.3853 H       
  50 H50            2.9102     9.3233    -1.2971 H       
  51 H51            1.0050     7.3982     0.1103 H       
  52 H52            2.0293     8.6147     0.9098 H       
  53 H53           -0.2837     9.4568     0.6105 H       
  54 H54            0.8732    10.4134    -0.3459 H       
  55 H55           -0.8459     8.1235    -1.4032 H       
  56 H56            0.0350     8.8322    -3.6101 H       
  57 H57            1.0593    10.0486    -2.8105 H       
  58 H58            2.3480     7.9901    -3.3107 H       
  59 H59            1.1911     7.0334    -2.3544 H       
  60 H60            4.5975    -3.4831    -1.9778 H       
  61 H61            3.4699    -6.1100    -2.4847 H       
  62 H62           -0.9777    11.1387    -1.8593 H       
  63 H63           -2.0020     9.9222    -2.6588 H       
  64 H64           -2.1346    10.1821    -0.9030 H       
  65 H65            4.2519    -5.9244    -0.1814 H       
  66 H66            5.7891    -5.2049    -0.7176 H       
  67 H67            4.7280    -4.3095     0.3962 H       
@<TRIPOS>BOND
   1    1    2 ar
   2    1    6 ar
   3    2    3 ar
   4    2    7 1
   5    3    4 ar
   6    3   10 1
   7    4    5 ar
   8    4   37 1
   9    5    6 ar
  10    5   38 1
  11    6   11 1
  12    7    8 1
  13    7   39 1
  14    7   40 1
  15    8    9 1
  16    8   41 1
  17    8   42 1
  18    9   10 1
  19    9   31 am
  20   10   43 1
  21   10   44 1
  22   11   12 1
  23   11   45 1
  24   12   13 ar
  25   12   17 ar
  26   13   14 ar
  27   14   15 ar
  28   14   18 1
  29   15   16 ar
  30   15   20 1
  31   16   17 ar
  32   16   46 1
  33   18   19 1
  34   18   25 1
  35   19   20 ar
  36   19   21 ar
  37   20   24 ar
  38   21   22 ar
  39   21   47 1
  40   22   23 ar
  41   23   24 ar
  42   23   48 1
  43   24   49 1
  44   25   26 1
  45   25   30 1
  46   25   50 1
  47   26   27 1
  48   26   51 1
  49   26   52 1
  50   27   28 1
  51   27   53 1
  52   27   54 1
  53   28   29 1
  54   28   35 1
  55   28   55 1
  56   29   30 1
  57   29   56 1
  58   29   57 1
  59   30   58 1
  60   30   59 1
  61   31   32 1
  62   31   33 2
  63   32   34 1
  64   32   36 1
  65   32   60 1
  66   34   61 1
  67   35   62 1
  68   35   63 1
  69   35   64 1
  70   36   65 1
  71   36   66 1
  72   36   67 1

#	End of record

