#	Name: ASD04880710
#	Creating user name:	WinNT
#	Creation time:	15. 06. 2019 20:53

#	Modifying user name:	WinNT
#	Modification time:	15. 06. 2019 20:53

#	Program:	/corina/corina34_cracker 3.40 0067  02.08.2006

@<TRIPOS>MOLECULE
ASD04880710
  80   85    0    0    0
SMALL
NO_CHARGES


@<TRIPOS>ATOM
   1 C1             0.0077     1.3660     0.0078 C.ar    
   2 C2            -1.1968     2.0429     0.0698 C.ar    
   3 C3            -1.2154     3.4247     0.1141 C.ar    
   4 C4            -0.0301     4.1338     0.0965 C.ar    
   5 C5             1.1812     3.4572     0.0343 C.ar    
   6 C6             1.1962     2.0687    -0.0101 C.ar    
   7 C7            -0.0514     5.6399     0.1443 C.3     
   8 N8             2.3816     4.1711     0.0158 N.3     
   9 C9             3.1849     3.8816     1.2118 C.3     
  10 C10            3.1439     3.8882    -1.2083 C.3     
  11 C11            4.4103     4.7474    -1.2274 C.3     
  12 N12            5.2137     4.4578    -0.0315 N.3     
  13 C13            4.4514     4.7407     1.1927 C.3     
  14 C14            6.4103     5.1695    -0.0498 C.ar    
  15 C15            6.6420     6.1604     0.8958 C.ar    
  16 C16            7.8266     6.8686     0.8810 C.ar    
  17 C17            8.7974     6.5883    -0.0882 C.ar    
  18 C18            8.5636     5.5902    -1.0398 C.ar    
  19 C19            7.3786     4.8815    -1.0165 C.ar    
  20 N20            7.1439     3.8768    -1.9660 N.am    
  21 C21            7.6252     4.0073    -3.2181 C.2     
  22 C22            7.4878     2.8986    -4.1797 C.2     
  23 O23            8.1729     5.0399    -3.5546 O.2     
  24 C24            6.9747     0.9819    -5.0304 C.2     
  25 O25            7.5998     1.6899    -5.9816 O.3     
  26 C26            7.9281     2.8860    -5.4675 C.2     
  27 N27            6.9023     1.6930    -3.9452 N.2     
  28 C28            6.4399    -0.4175    -5.1938 C.3     
  29 C29            5.3742    -0.6456    -6.2677 C.3     
  30 C30            6.7977    -1.1647    -6.4801 C.3     
  31 C31           10.0627     7.3437    -0.1061 C.2     
  32 N32           10.9962     7.0728    -1.0397 N.am    
  33 O33           10.2645     8.2116     0.7217 O.2     
  34 C34           12.2540     7.8237    -1.0574 C.3     
  35 C35           13.1305     7.3234    -2.2073 C.3     
  36 C36           14.4441     8.1076    -2.2258 C.3     
  37 N37           15.2834     7.6285    -3.3269 N.am    
  38 C38           16.5615     6.1023    -4.6636 C.3     
  39 C39           16.2539     6.5336    -3.2125 C.3     
  40 C40           15.2594     8.1316    -4.5731 C.2     
  41 C41           16.2460     7.3937    -5.4511 C.3     
  42 O42           14.5496     9.0438    -4.9405 O.2     
  43 F43            8.0492     7.8324     1.8012 F       
  44 H44            0.0188     0.2865    -0.0222 H       
  45 H45           -2.1250     1.4909     0.0834 H       
  46 H46           -2.1577     3.9503     0.1622 H       
  47 H47            2.1365     1.5395    -0.0582 H       
  48 H48           -0.0220     5.9709     1.1824 H       
  49 H49            0.8157     6.0326    -0.3869 H       
  50 H50           -0.9631     6.0056    -0.3280 H       
  51 H51            2.6034     4.1109     2.1048 H       
  52 H52            3.4609     2.8271     1.2180 H       
  53 H53            3.4193     2.8338    -1.2296 H       
  54 H54            2.5324     4.1223    -2.0797 H       
  55 H55            4.9918     4.5181    -2.1204 H       
  56 H56            4.1344     5.8018    -1.2336 H       
  57 H57            4.1759     5.7951     1.2140 H       
  58 H58            5.0629     4.5066     2.0641 H       
  59 H59            5.8937     6.3772     1.6438 H       
  60 H60            9.3101     5.3716    -1.7891 H       
  61 H61            6.6351     3.0879    -1.7217 H       
  62 H62            8.4430     3.6860    -5.9787 H       
  63 H63            6.3633    -1.0016    -4.2767 H       
  64 H64            4.5968    -1.3800    -6.0573 H       
  65 H65            5.0599     0.2166    -6.8560 H       
  66 H66            7.4199    -0.6442    -7.2080 H       
  67 H67            6.9567    -2.2408    -6.4093 H       
  68 H68           10.8352     6.3806    -1.6999 H       
  69 H69           12.0423     8.8838    -1.1966 H       
  70 H70           12.7770     7.6787    -0.1122 H       
  71 H71           13.3422     6.2632    -2.0681 H       
  72 H72           12.6074     7.4684    -3.1525 H       
  73 H73           14.2324     9.1678    -2.3650 H       
  74 H74           14.9672     7.9626    -1.2806 H       
  75 H75           17.6093     5.8226    -4.7736 H       
  76 H76           15.9072     5.2883    -4.9757 H       
  77 H77           17.1622     6.8842    -2.7226 H       
  78 H78           15.8209     5.7025    -2.6557 H       
  79 H79           17.1503     7.9861    -5.5906 H       
  80 H80           15.7943     7.1530    -6.4135 H       
@<TRIPOS>BOND
   1    1    2 ar
   2    1    6 ar
   3    1   44 1
   4    2    3 ar
   5    2   45 1
   6    3    4 ar
   7    3   46 1
   8    4    5 ar
   9    4    7 1
  10    5    6 ar
  11    5    8 1
  12    6   47 1
  13    7   48 1
  14    7   49 1
  15    7   50 1
  16    8   10 1
  17    8    9 1
  18    9   13 1
  19    9   51 1
  20    9   52 1
  21   10   11 1
  22   10   53 1
  23   10   54 1
  24   11   12 1
  25   11   55 1
  26   11   56 1
  27   12   13 1
  28   12   14 1
  29   13   57 1
  30   13   58 1
  31   14   15 ar
  32   14   19 ar
  33   15   16 ar
  34   15   59 1
  35   16   17 ar
  36   16   43 1
  37   17   18 ar
  38   17   31 1
  39   18   19 ar
  40   18   60 1
  41   19   20 1
  42   20   21 am
  43   20   61 1
  44   21   22 1
  45   21   23 2
  46   22   27 1
  47   22   26 2
  48   24   25 1
  49   24   27 2
  50   24   28 1
  51   25   26 1
  52   26   62 1
  53   28   29 1
  54   28   30 1
  55   28   63 1
  56   29   30 1
  57   29   64 1
  58   29   65 1
  59   30   66 1
  60   30   67 1
  61   31   32 am
  62   31   33 2
  63   32   34 1
  64   32   68 1
  65   34   35 1
  66   34   69 1
  67   34   70 1
  68   35   36 1
  69   35   71 1
  70   35   72 1
  71   36   37 1
  72   36   73 1
  73   36   74 1
  74   37   40 am
  75   37   39 1
  76   38   39 1
  77   38   41 1
  78   38   75 1
  79   38   76 1
  80   39   77 1
  81   39   78 1
  82   40   41 1
  83   40   42 2
  84   41   79 1
  85   41   80 1

#	End of record

