#	Name: ASD00450004
#	Creating user name:	WinNT
#	Creation time:	15. 06. 2019 18:35

#	Modifying user name:	WinNT
#	Modification time:	15. 06. 2019 18:35

#	Program:	/corina/corina34_cracker 3.40 0067  02.08.2006

@<TRIPOS>MOLECULE
ASD00450004
  59   63    0    0    0
SMALL
NO_CHARGES


@<TRIPOS>ATOM
   1 C1             0.1132     1.4692    -0.0663 C.2     
   2 N2             0.1747     0.3750    -0.8708 N.am    
   3 C3             1.3523    -0.2567    -1.0854 C.2     
   4 C4             2.5441     0.2882    -0.4181 C.ar    
   5 C5             2.3839     1.4292     0.3992 C.ar    
   6 N6             1.1476     1.9721     0.5353 N.2     
   7 C7             3.8028    -0.2878    -0.5727 C.ar    
   8 C8             4.8886     0.2698     0.0814 C.ar    
   9 C9             4.7245     1.3966     0.8872 C.ar    
  10 C10            3.4962     1.9711     1.0475 C.ar    
  11 N11            6.1564    -0.3003    -0.0663 N.pl3   
  12 C12            7.2783     0.5195    -0.2107 C.ar    
  13 C13            7.1219     1.8888    -0.3731 C.ar    
  14 C14            8.2391     2.6996    -0.5157 C.ar    
  15 C15            9.5099     2.1385    -0.4955 C.ar    
  16 C16            9.6624     0.7747    -0.3336 C.ar    
  17 C17            8.5529    -0.0347    -0.1861 C.ar    
  18 C18            8.7240    -1.5215    -0.0093 C.3     
  19 N19            8.0858     4.0798    -0.6801 N.am    
  20 C20            8.9732     4.9275    -0.1228 C.2     
  21 C21            8.7788     6.3793    -0.2442 C.2     
  22 O22            9.9352     4.4908     0.4809 O.2     
  23 N23            7.7626     7.0003    -0.8812 N.2     
  24 C24            7.9144     8.2890    -0.7856 C.2     
  25 N25            9.0421     8.5629    -0.0783 N.pl3   
  26 C26            9.6029     7.3668     0.2801 C.2     
  27 C27           10.8410     7.1664     1.0591 C.ar    
  28 C28           11.0744     7.9216     2.2104 C.ar    
  29 C29           12.2325     7.7307     2.9345 C.ar    
  30 C30           13.1642     6.7916     2.5221 C.ar    
  31 C31           12.9381     6.0382     1.3791 C.ar    
  32 C32           11.7804     6.2168     0.6504 C.ar    
  33 C33           -1.0446    -0.1250    -1.5107 C.3     
  34 O34            1.4221    -1.2378    -1.8026 O.2     
  35 F35           14.2970     6.6093     3.2352 F       
  36 Cl36          14.1107     4.8641     0.8691 Cl      
  37 C37            6.9830     9.3196    -1.3699 C.3     
  38 F38            5.7752     8.7090    -1.7243 F       
  39 F39            6.7396    10.3191    -0.4217 F       
  40 F40            7.5695     9.8875    -2.5060 F       
  41 H41           -0.8447     1.9472     0.0761 H       
  42 H42            3.9306    -1.1604    -1.1961 H       
  43 H43            5.5806     1.8201     1.3914 H       
  44 H44            3.3849     2.8434     1.6744 H       
  45 H45            6.2572    -1.2650    -0.0684 H       
  46 H46            6.1329     2.3225    -0.3888 H       
  47 H47           10.3797     2.7690    -0.6068 H       
  48 H48           10.6514     0.3411    -0.3186 H       
  49 H49            8.8087    -1.7538     1.0523 H       
  50 H50            7.8601    -2.0388    -0.4266 H       
  51 H51            9.6269    -1.8473    -0.5256 H       
  52 H52            7.3409     4.4272    -1.1952 H       
  53 H53            9.3846     9.4446     0.1367 H       
  54 H54           10.3494     8.6542     2.5329 H       
  55 H55           12.4138     8.3146     3.8248 H       
  56 H56           11.6048     5.6298    -0.2390 H       
  57 H57           -1.8885     0.5031    -1.2253 H       
  58 H58           -0.9230    -0.1002    -2.5936 H       
  59 H59           -1.2295    -1.1500    -1.1892 H       
@<TRIPOS>BOND
   1    1    2 1
   2    1    6 2
   3    1   41 1
   4    2    3 am
   5    2   33 1
   6    3    4 1
   7    3   34 2
   8    4    5 ar
   9    4    7 ar
  10    5    6 1
  11    5   10 ar
  12    7    8 ar
  13    7   42 1
  14    8    9 ar
  15    8   11 1
  16    9   10 ar
  17    9   43 1
  18   10   44 1
  19   11   12 1
  20   11   45 1
  21   12   13 ar
  22   12   17 ar
  23   13   14 ar
  24   13   46 1
  25   14   15 ar
  26   14   19 1
  27   15   16 ar
  28   15   47 1
  29   16   17 ar
  30   16   48 1
  31   17   18 1
  32   18   49 1
  33   18   50 1
  34   18   51 1
  35   19   20 am
  36   19   52 1
  37   20   21 1
  38   20   22 2
  39   21   23 1
  40   21   26 2
  41   23   24 2
  42   24   25 1
  43   24   37 1
  44   25   26 1
  45   25   53 1
  46   26   27 1
  47   27   28 ar
  48   27   32 ar
  49   28   29 ar
  50   28   54 1
  51   29   30 ar
  52   29   55 1
  53   30   31 ar
  54   30   35 1
  55   31   32 ar
  56   31   36 1
  57   32   56 1
  58   33   57 1
  59   33   58 1
  60   33   59 1
  61   37   38 1
  62   37   39 1
  63   37   40 1

#	End of record

