#	Name: ASD01810875
#	Creating user name:	WinNT
#	Creation time:	15. 06. 2019 19:25

#	Modifying user name:	WinNT
#	Modification time:	15. 06. 2019 19:25

#	Program:	/corina/corina34_cracker 3.40 0067  02.08.2006

@<TRIPOS>MOLECULE
ASD01810875
  65   70    0    0    0
SMALL
NO_CHARGES


@<TRIPOS>ATOM
   1 C1            -0.0178     1.4608     0.0101 C.3     
   2 C2            -0.8561    -4.3045     1.9928 C.ar    
   3 C3            -0.9017    -2.9526     2.0600 C.ar    
   4 C4            -0.4312    -2.1546     1.0056 C.ar    
   5 C5             0.1023    -2.7462    -0.1539 C.ar    
   6 C6             0.1539    -4.2031    -0.2331 C.ar    
   7 C7             0.6706    -4.8584    -1.3554 C.ar    
   8 C8             0.6994    -6.2222    -1.3877 C.ar    
   9 C9             0.2207    -6.9703    -0.3170 C.ar    
  10 C10           -0.2892    -6.3624     0.7914 C.ar    
  11 C11           -0.3335    -4.9615     0.8591 C.ar    
  12 C12           -1.3670    -5.1212     3.1518 C.3     
  13 C13            0.1374    -4.6468     5.1059 C.ar    
  14 C14           -0.2176    -5.4826     4.0570 C.ar    
  15 C15            0.4931    -6.6508     3.8503 C.ar    
  16 N16            1.4994    -6.9781     4.6348 N.ar    
  17 C17            1.1987    -5.0158     5.9147 C.ar    
  18 C18            1.8706    -6.2066     5.6484 C.ar    
  19 C19           -0.4751    -0.6880     1.0678 C.2     
  20 N20            0.0021    -0.0041     0.0020 N.am    
  21 C21            0.4982    -0.6646    -1.0739 C.2     
  22 N22            0.5470    -1.9625    -1.1505 N.2     
  23 O23           -0.9241    -0.1095     2.0409 O.2     
  24 C24            1.4108     1.9910    -0.1270 C.3     
  25 C25            2.0143     1.4963    -1.4431 C.3     
  26 C26            1.1684     2.0013    -2.6137 C.3     
  27 C27           -0.2602     1.4712    -2.4766 C.3     
  28 C28           -0.8637     1.9658    -1.1605 C.3     
  29 O29            2.2009     1.5193     0.9663 O.3     
  30 C30            3.0102    -6.6158     6.5055 C.ar    
  31 C31            3.6938    -7.8037     6.2546 C.ar    
  32 C32            3.4190    -5.8131     7.5740 C.ar    
  33 C33            4.4881    -6.2385     8.3440 C.ar    
  34 C34            5.1119    -7.4328     8.0347 C.ar    
  35 N35            4.7069    -8.1680     7.0154 N.ar    
  36 C36            6.2760    -7.8999     8.8700 C.3     
  37 O37            5.3756    -9.3844     6.7353 O.3     
  38 H38           -0.4477     1.8132     0.9477 H       
  39 H39           -1.3082    -2.4795     2.9418 H       
  40 H40            1.0447    -4.2878    -2.1926 H       
  41 H41            1.0984    -6.7270    -2.2551 H       
  42 H42            0.2532    -8.0488    -0.3648 H       
  43 H43           -0.6571    -6.9568     1.6147 H       
  44 H44           -2.1005    -4.5398     3.7105 H       
  45 H45           -1.8343    -6.0316     2.7767 H       
  46 H46           -0.3995    -3.7270     5.2850 H       
  47 H47            0.2191    -7.3039     3.0349 H       
  48 H48            1.5019    -4.3888     6.7402 H       
  49 H49            0.8701    -0.0857    -1.9064 H       
  50 H50            1.3961     3.0808    -0.1210 H       
  51 H51            3.0321     1.8740    -1.5407 H       
  52 H52            2.0291     0.4064    -1.4491 H       
  53 H53            1.1536     3.0912    -2.6077 H       
  54 H54            1.5983     1.6490    -3.5513 H       
  55 H55           -0.8629     1.8309    -3.3105 H       
  56 H56           -0.2455     0.3813    -2.4826 H       
  57 H57           -1.8815     1.5881    -1.0629 H       
  58 H58           -0.8785     3.0557    -1.1545 H       
  59 H59            3.1206     1.8172     0.9443 H       
  60 H60            3.3908    -8.4317     5.4299 H       
  61 H61            2.9138    -4.8841     7.7934 H       
  62 H62            4.8314    -5.6434     9.1774 H       
  63 H63            5.9095    -8.5118     9.6941 H       
  64 H64            6.9529    -8.4901     8.2522 H       
  65 H65            6.8078    -7.0355     9.2678 H       
@<TRIPOS>BOND
   1    1   20 1
   2    1   24 1
   3    1   28 1
   4    1   38 1
   5    2    3 ar
   6    2   11 ar
   7    2   12 1
   8    3    4 ar
   9    3   39 1
  10    4    5 ar
  11    4   19 1
  12    5    6 ar
  13    5   22 1
  14    6    7 ar
  15    6   11 ar
  16    7    8 ar
  17    7   40 1
  18    8    9 ar
  19    8   41 1
  20    9   10 ar
  21    9   42 1
  22   10   11 ar
  23   10   43 1
  24   12   14 1
  25   12   44 1
  26   12   45 1
  27   13   14 ar
  28   13   17 ar
  29   13   46 1
  30   14   15 ar
  31   15   16 ar
  32   15   47 1
  33   16   18 ar
  34   17   18 ar
  35   17   48 1
  36   18   30 1
  37   19   20 am
  38   19   23 2
  39   20   21 1
  40   21   22 2
  41   21   49 1
  42   24   25 1
  43   24   29 1
  44   24   50 1
  45   25   26 1
  46   25   51 1
  47   25   52 1
  48   26   27 1
  49   26   53 1
  50   26   54 1
  51   27   28 1
  52   27   55 1
  53   27   56 1
  54   28   57 1
  55   28   58 1
  56   29   59 1
  57   30   31 ar
  58   30   32 ar
  59   31   35 ar
  60   31   60 1
  61   32   33 ar
  62   32   61 1
  63   33   34 ar
  64   33   62 1
  65   34   35 ar
  66   34   36 1
  67   35   37 1
  68   36   63 1
  69   36   64 1
  70   36   65 1

#	End of record

