#	Name: ASD05143040
#	Creating user name:	WinNT
#	Creation time:	15. 06. 2019 20:57

#	Modifying user name:	WinNT
#	Modification time:	15. 06. 2019 20:57

#	Program:	/corina/corina34_cracker 3.40 0067  02.08.2006

@<TRIPOS>MOLECULE
ASD05143040
 147  150    0    0    0
SMALL
NO_CHARGES


@<TRIPOS>ATOM
   1 C1            -2.1041     5.4138     7.5430 C.2     
   2 C2            -1.6185     4.6777     8.7651 C.3     
   3 N3            -1.2164     5.9482     6.6811 N.am    
   4 O4            -3.2937     5.5209     7.3325 O.2     
   5 C5            -1.6886     6.6637     5.4931 C.3     
   6 C6            -2.5224     5.7182     4.6261 C.3     
   7 C7            -2.5360     7.8358     5.9163 C.2     
   8 C8            -1.6307     4.5945     4.0941 C.3     
   9 C9            -2.4645     3.6490     3.2270 C.3     
  10 N10           -1.6107     2.5730     2.7176 N.pl3   
  11 C11           -2.1437     1.5968     1.9093 C.2     
  12 N12           -1.3424     0.5870     1.4312 N.pl3   
  13 N13           -3.4085     1.6287     1.5963 N.2     
  14 O14           -3.0284     7.8593     7.0244 O.2     
  15 N15           -2.7466     8.8579     5.0635 N.am    
  16 C16           -3.5705     9.9973     5.4749 C.3     
  17 C17           -2.6673    11.1889     5.7995 C.3     
  18 C18           -1.5110    10.7262     6.6880 C.3     
  19 C19           -0.3702    10.2547     5.8237 C.2     
  20 O20           -0.5733     9.5225     4.8784 O.2     
  21 N21            0.8970    10.6676     6.1242 N.am    
  22 C22            1.9600    10.1542     5.2303 C.3     
  23 C23            2.1100    11.1122     4.0469 C.3     
  24 C24            2.7730    10.3792     2.8789 C.3     
  25 C25            3.7314    11.3291     2.1578 C.3     
  26 N26            3.6794    11.0489     0.7088 N.am    
  27 C27            5.1340    11.1118     2.6641 C.2     
  28 N28            5.5220    11.6627     3.8314 N.am    
  29 O29            5.9137    10.4412     2.0213 O.2     
  30 C30            2.8531    11.8355    -0.0334 C.2     
  31 O31            2.2095    12.7185     0.4929 O.2     
  32 C32            2.7485    11.5959    -1.5175 C.3     
  33 N33            1.5337    12.2777    -2.0204 N.am    
  34 C34            3.9841    12.1644    -2.2182 C.3     
  35 C35            0.4805    11.4576    -2.3115 C.2     
  36 O36            0.5720    10.2576    -2.1618 O.2     
  37 C37           -0.7974    12.0725    -2.8216 C.3     
  38 N38           -1.9242    11.1803    -2.4835 N.am    
  39 C39           -1.0084    13.4371    -2.1626 C.3     
  40 C40           -3.0286    11.7697    -1.9483 C.2     
  41 O41           -3.0579    12.9680    -1.7636 O.2     
  42 C42           -4.2143    10.9118    -1.5893 C.3     
  43 C43            3.9355    11.8158    -3.6835 C.2     
  44 C44            3.2371    12.5608    -4.7338 C.ar    
  45 C45            3.4746    11.8606    -5.9305 C.ar    
  46 N46            4.2597    10.7740    -5.6164 N.pl3   
  47 C47            4.5289    10.7669    -4.2749 C.2     
  48 C48            2.4604    13.7211    -4.7477 C.ar    
  49 C49            1.9343    14.1709    -5.9257 C.ar    
  50 C50            2.1654    13.4833    -7.1094 C.ar    
  51 C51            2.9293    12.3371    -7.1185 C.ar    
  52 N52           -4.7997    11.4159    -0.3260 N.am    
  53 C53           -3.7613     9.4623    -1.4026 C.3     
  54 C54           -4.9599     8.5940    -1.1190 C.ar    
  55 C55           -5.9892     8.5169    -2.0393 C.ar    
  56 C56           -7.0890     7.7221    -1.7825 C.ar    
  57 C57           -7.1606     6.9997    -0.5982 C.ar    
  58 C58           -6.1249     7.0794     0.3241 C.ar    
  59 C59           -5.0254     7.8717     0.0584 C.ar    
  60 C60           -4.5090    10.3689     4.3558 C.2     
  61 N61           -3.9923    10.8537     3.1934 N.am    
  62 O62           -5.7073    10.2374     4.4887 O.2     
  63 C63           -4.9603    11.2009     2.1337 C.3     
  64 C64           -5.1819    12.7146     2.1176 C.3     
  65 C65           -4.4061    10.7574     0.8044 C.2     
  66 C66           -5.8447    13.1471     3.4270 C.3     
  67 N67           -6.0574    14.6005     3.4115 N.3     
  68 O68           -3.6248     9.8321     0.7393 O.2     
  69 C69           -1.0178    13.2728    -0.6414 C.3     
  70 C70           -1.3755    14.6084     0.0136 C.3     
  71 N71           -1.3845    14.4511     1.4701 N.pl3   
  72 C72           -1.6814    15.5249     2.2757 C.2     
  73 N73           -1.6899    15.3773     3.6426 N.pl3   
  74 N74           -1.9548    16.6829     1.7436 N.2     
  75 N75           -8.2717     6.1952    -0.3351 N.pl3   
  76 H76           -0.5286     4.6810     8.7820 H       
  77 H77           -1.9972     5.1706     9.6605 H       
  78 H78           -1.9783     3.6492     8.7367 H       
  79 H79           -0.2650     5.8590     6.8474 H       
  80 H80           -0.8329     7.0219     4.9207 H       
  81 H81           -3.3270     5.2911     5.2246 H       
  82 H82           -2.9470     6.2723     3.7890 H       
  83 H83           -0.8261     5.0216     3.4956 H       
  84 H84           -1.2061     4.0403     4.9312 H       
  85 H85           -3.2692     3.2218     3.8255 H       
  86 H86           -2.8891     4.2031     2.3899 H       
  87 H87           -0.6694     2.5492     2.9506 H       
  88 H88           -0.4011     0.5633     1.6642 H       
  89 H89           -1.7185    -0.1017     0.8610 H       
  90 H90           -3.7845     0.9400     1.0260 H       
  91 H91           -2.3528     8.8391     4.1772 H       
  92 H92           -4.1480     9.7276     6.3591 H       
  93 H93           -2.2700    11.6061     4.8742 H       
  94 H94           -3.2452    11.9507     6.3227 H       
  95 H95           -1.1764    11.5562     7.3102 H       
  96 H96           -1.8470     9.9076     7.3244 H       
  97 H97            1.0871    11.2565     6.8712 H       
  98 H98            2.9015    10.0977     5.7767 H       
  99 H99            1.6854     9.1640     4.8668 H       
 100 H100           1.1264    11.4686     3.7409 H       
 101 H101           2.7283    11.9601     4.3418 H       
 102 H102           3.3283     9.5208     3.2570 H       
 103 H103           2.0071    10.0381     2.1824 H       
 104 H104           3.4304    12.3605     2.3414 H       
 105 H105           4.2065    10.3407     0.3069 H       
 106 H106           4.8984    12.1990     4.3455 H       
 107 H107           6.4248    11.5228     4.1573 H       
 108 H108           2.6743    10.5258    -1.7112 H       
 109 H109           1.4891    13.2398    -2.1355 H       
 110 H110           4.0008    13.2481    -2.1029 H       
 111 H111           4.8828    11.7377    -1.7728 H       
 112 H112          -0.7385    12.1926    -3.9034 H       
 113 H113          -1.8798    10.2232    -2.6347 H       
 114 H114          -0.1996    14.1086    -2.4505 H       
 115 H115          -1.9609    13.8547    -2.4888 H       
 116 H116          -4.9584    10.9653    -2.3840 H       
 117 H117           4.5777    10.1140    -6.2521 H       
 118 H118           5.1242    10.0232    -3.7660 H       
 119 H119           2.2759    14.2607    -3.8306 H       
 120 H120           1.3337    15.0684    -5.9360 H       
 121 H121           1.7425    13.8512    -8.0325 H       
 122 H122           3.1036    11.8095    -8.0446 H       
 123 H123          -5.4192    12.1619    -0.3027 H       
 124 H124          -3.2684     9.1159    -2.3110 H       
 125 H125          -3.0646     9.4043    -0.5664 H       
 126 H126          -5.9330     9.0792    -2.9597 H       
 127 H127          -7.8927     7.6627    -2.5015 H       
 128 H128          -6.1774     6.5190     1.2458 H       
 129 H129          -4.2196     7.9339     0.7749 H       
 130 H130          -3.0371    10.9658     3.0677 H       
 131 H131          -5.9070    10.6952     2.3240 H       
 132 H132          -4.2225    13.2211     2.0114 H       
 133 H133          -5.8268    12.9785     1.2794 H       
 134 H134          -6.8040    12.6406     3.5332 H       
 135 H135          -5.1997    12.8832     4.2651 H       
 136 H136          -6.5991    14.8781     2.6068 H       
 137 H137          -6.4943    14.9112     4.2662 H       
 138 H138          -1.7564    12.5216    -0.3617 H       
 139 H139          -0.0311    12.9554    -0.3041 H       
 140 H140          -0.6369    15.3596    -0.2661 H       
 141 H141          -2.3622    14.9258    -0.3237 H       
 142 H142          -1.1810    13.5893     1.8661 H       
 143 H143          -1.4864    14.5155     4.0386 H       
 144 H144          -1.8993    16.1349     4.2109 H       
 145 H145          -2.1643    17.4405     2.3119 H       
 146 H146          -8.9945     6.1406    -0.9798 H       
 147 H147          -8.3206     5.6912     0.4922 H       
@<TRIPOS>BOND
   1    1    2 1
   2    1    3 am
   3    1    4 2
   4    2   76 1
   5    2   77 1
   6    2   78 1
   7    3    5 1
   8    3   79 1
   9    5    6 1
  10    5    7 1
  11    5   80 1
  12    6    8 1
  13    6   81 1
  14    6   82 1
  15    7   14 2
  16    7   15 am
  17    8    9 1
  18    8   83 1
  19    8   84 1
  20    9   10 1
  21    9   85 1
  22    9   86 1
  23   10   11 1
  24   10   87 1
  25   11   12 1
  26   11   13 2
  27   12   88 1
  28   12   89 1
  29   13   90 1
  30   15   16 1
  31   15   91 1
  32   16   17 1
  33   16   60 1
  34   16   92 1
  35   17   18 1
  36   17   93 1
  37   17   94 1
  38   18   19 1
  39   18   95 1
  40   18   96 1
  41   19   20 2
  42   19   21 am
  43   21   22 1
  44   21   97 1
  45   22   23 1
  46   22   98 1
  47   22   99 1
  48   23   24 1
  49   23  100 1
  50   23  101 1
  51   24   25 1
  52   24  102 1
  53   24  103 1
  54   25   26 1
  55   25   27 1
  56   25  104 1
  57   26   30 am
  58   26  105 1
  59   27   28 am
  60   27   29 2
  61   28  106 1
  62   28  107 1
  63   30   31 2
  64   30   32 1
  65   32   33 1
  66   32   34 1
  67   32  108 1
  68   33   35 am
  69   33  109 1
  70   34   43 1
  71   34  110 1
  72   34  111 1
  73   35   36 2
  74   35   37 1
  75   37   38 1
  76   37   39 1
  77   37  112 1
  78   38   40 am
  79   38  113 1
  80   39   69 1
  81   39  114 1
  82   39  115 1
  83   40   41 2
  84   40   42 1
  85   42   52 1
  86   42   53 1
  87   42  116 1
  88   43   44 1
  89   43   47 2
  90   44   45 ar
  91   44   48 ar
  92   45   46 1
  93   45   51 ar
  94   46   47 1
  95   46  117 1
  96   47  118 1
  97   48   49 ar
  98   48  119 1
  99   49   50 ar
 100   49  120 1
 101   50   51 ar
 102   50  121 1
 103   51  122 1
 104   52   65 am
 105   52  123 1
 106   53   54 1
 107   53  124 1
 108   53  125 1
 109   54   55 ar
 110   54   59 ar
 111   55   56 ar
 112   55  126 1
 113   56   57 ar
 114   56  127 1
 115   57   58 ar
 116   57   75 1
 117   58   59 ar
 118   58  128 1
 119   59  129 1
 120   60   61 am
 121   60   62 2
 122   61   63 1
 123   61  130 1
 124   63   64 1
 125   63   65 1
 126   63  131 1
 127   64   66 1
 128   64  132 1
 129   64  133 1
 130   65   68 2
 131   66   67 1
 132   66  134 1
 133   66  135 1
 134   67  136 1
 135   67  137 1
 136   69   70 1
 137   69  138 1
 138   69  139 1
 139   70   71 1
 140   70  140 1
 141   70  141 1
 142   71   72 1
 143   71  142 1
 144   72   73 1
 145   72   74 2
 146   73  143 1
 147   73  144 1
 148   74  145 1
 149   75  146 1
 150   75  147 1

#	End of record

