#	Name: ASD01180174
#	Creating user name:	WinNT
#	Creation time:	15. 06. 2019 19:06

#	Modifying user name:	WinNT
#	Modification time:	15. 06. 2019 19:06

#	Program:	/corina/corina34_cracker 3.40 0067  02.08.2006

@<TRIPOS>MOLECULE
ASD01180174
  70   72    0    0    0
SMALL
NO_CHARGES


@<TRIPOS>ATOM
   1 C1             1.0885     1.4871    -0.2705 C.ar    
   2 C2             0.9118     0.1205    -0.1925 C.ar    
   3 C3             2.0161    -0.7269    -0.2549 C.ar    
   4 C4             3.2936    -0.1888    -0.3958 C.ar    
   5 C5             3.4588     1.1793    -0.4728 C.ar    
   6 C6             2.3590     2.0159    -0.4103 C.ar    
   7 C7             2.5456     3.5089    -0.4949 C.3     
   8 F8             2.4836     3.9115    -1.8333 F       
   9 F9             1.5346     4.1472     0.2314 F       
  10 F10            3.7920     3.8540     0.0386 F       
  11 C11            1.8323    -2.1970    -0.1711 C.ar    
  12 C12            2.1497    -3.0046    -1.2613 C.ar    
  13 C13            1.9767    -4.3713    -1.1779 C.ar    
  14 C14            1.4890    -4.9396    -0.0149 C.ar    
  15 C15            1.1724    -4.1426     1.0704 C.ar    
  16 C16            1.3473    -2.7754     1.0001 C.ar    
  17 C17            2.6802    -2.3868    -2.5293 C.3     
  18 C18            1.0018    -1.9083     2.1833 C.3     
  19 C19            1.3014    -6.4325     0.0698 C.3     
  20 C20            2.4807    -7.0528     0.8218 C.3     
  21 N21            0.0569    -6.7285     0.7838 N.pl3   
  22 C22            2.3477    -8.5770     0.8107 C.3     
  23 C23            2.4806    -9.0901    -0.6245 C.3     
  24 C24            3.4497    -9.1914     1.6762 C.3     
  25 C25           -1.1543    -6.6757     0.1149 C.ar    
  26 N26           -2.2822    -6.8477     0.7905 N.ar    
  27 C27           -3.4565    -6.8058     0.1963 C.ar    
  28 C28           -3.5480    -6.5769    -1.1773 C.ar    
  29 C29           -2.3699    -6.3914    -1.9172 C.ar    
  30 C30           -1.1712    -6.4369    -1.2583 C.ar    
  31 C31           -4.8643    -6.5311    -1.8423 C.2     
  32 N32           -5.9895    -6.7109    -1.1226 N.am    
  33 O33           -4.9339    -6.3310    -3.0396 O.2     
  34 C34           -7.2965    -6.6654    -1.7829 C.3     
  35 C35           -8.3991    -6.8977    -0.7479 C.3     
  36 C36           -9.7435    -6.8508    -1.4271 C.2     
  37 O37          -10.8642    -7.0299    -0.7104 O.3     
  38 O38           -9.8127    -6.6521    -2.6169 O.2     
  39 H39            0.2328     2.1446    -0.2267 H       
  40 H40           -0.0806    -0.2913    -0.0829 H       
  41 H41            4.1530    -0.8410    -0.4444 H       
  42 H42            4.4485     1.5975    -0.5821 H       
  43 H43            2.2224    -4.9983    -2.0223 H       
  44 H44            0.7919    -4.5915     1.9760 H       
  45 H45            3.7680    -2.3374    -2.4819 H       
  46 H46            2.3810    -2.9952    -3.3828 H       
  47 H47            2.2753    -1.3809    -2.6405 H       
  48 H48            1.8769    -1.8035     2.8247 H       
  49 H49            0.6877    -0.9248     1.8337 H       
  50 H50            0.1911    -2.3695     2.7473 H       
  51 H51            1.2516    -6.8501    -0.9358 H       
  52 H52            3.4131    -6.7659     0.3355 H       
  53 H53            2.4832    -6.6958     1.8517 H       
  54 H54            0.0814    -6.9615     1.7251 H       
  55 H55            1.3731    -8.8595     1.2088 H       
  56 H56            3.4796    -8.8669    -0.9991 H       
  57 H57            2.3186   -10.1679    -0.6415 H       
  58 H58            1.7384    -8.6011    -1.2554 H       
  59 H59            3.3550    -8.8258     2.6987 H       
  60 H60            3.3549   -10.2772     1.6683 H       
  61 H61            4.4243    -8.9088     1.2781 H       
  62 H62           -4.3560    -6.9500     0.7765 H       
  63 H63           -2.4086    -6.2124    -2.9815 H       
  64 H64           -0.2465    -6.2979    -1.7988 H       
  65 H65           -5.9340    -6.8705    -0.1674 H       
  66 H66           -7.4346    -5.6894    -2.2482 H       
  67 H67           -7.3451    -7.4420    -2.5462 H       
  68 H68           -8.2609    -7.8736    -0.2826 H       
  69 H69           -8.3504    -6.1211     0.0154 H       
  70 H70          -11.7030    -6.9912    -1.1900 H       
@<TRIPOS>BOND
   1    1    2 ar
   2    1    6 ar
   3    1   39 1
   4    2    3 ar
   5    2   40 1
   6    3    4 ar
   7    3   11 1
   8    4    5 ar
   9    4   41 1
  10    5    6 ar
  11    5   42 1
  12    6    7 1
  13    7    8 1
  14    7    9 1
  15    7   10 1
  16   11   12 ar
  17   11   16 ar
  18   12   13 ar
  19   12   17 1
  20   13   14 ar
  21   13   43 1
  22   14   15 ar
  23   14   19 1
  24   15   16 ar
  25   15   44 1
  26   16   18 1
  27   17   45 1
  28   17   46 1
  29   17   47 1
  30   18   48 1
  31   18   49 1
  32   18   50 1
  33   19   20 1
  34   19   21 1
  35   19   51 1
  36   20   22 1
  37   20   52 1
  38   20   53 1
  39   21   25 1
  40   21   54 1
  41   22   23 1
  42   22   24 1
  43   22   55 1
  44   23   56 1
  45   23   57 1
  46   23   58 1
  47   24   59 1
  48   24   60 1
  49   24   61 1
  50   25   26 ar
  51   25   30 ar
  52   26   27 ar
  53   27   28 ar
  54   27   62 1
  55   28   29 ar
  56   28   31 1
  57   29   30 ar
  58   29   63 1
  59   30   64 1
  60   31   32 am
  61   31   33 2
  62   32   34 1
  63   32   65 1
  64   34   35 1
  65   34   66 1
  66   34   67 1
  67   35   36 1
  68   35   68 1
  69   35   69 1
  70   36   37 1
  71   36   38 2
  72   37   70 1

#	End of record

