#	Name: ASD01883723
#	Creating user name:	WinNT
#	Creation time:	15. 06. 2019 19:46

#	Modifying user name:	WinNT
#	Modification time:	15. 06. 2019 19:46

#	Program:	/corina/corina34_cracker 3.40 0067  02.08.2006

@<TRIPOS>MOLECULE
ASD01883723
  44   48    0    0    0
SMALL
NO_CHARGES


@<TRIPOS>ATOM
   1 C1            -0.8213    -0.0410     1.1340 C.2     
   2 C2             0.0021    -0.0041     0.0020 C.2     
   3 C3            -0.4100     0.7404    -1.1189 C.2     
   4 C4            -1.5766     1.4123    -1.1155 C.2     
   5 N5            -2.4098     1.4050    -0.0353 N.pl3   
   6 C6            -2.0854     0.6991     1.0942 C.2     
   7 C7            -3.6245     1.9995     0.2032 C.2     
   8 C8            -3.9990     1.6518     1.4509 C.2     
   9 N9            -3.0544     0.8623     1.9762 N.2     
  10 C10           -4.3943     2.8763    -0.7505 C.3     
  11 C11           -4.0759     4.3450    -0.4631 C.3     
  12 N12            1.2030    -0.6889    -0.0141 N.pl3   
  13 F13           -2.7046     4.5661    -0.6298 F       
  14 F14           -4.7906     5.1590    -1.3484 F       
  15 F15           -4.4414     4.6527     0.8518 F       
  16 C16            1.2361    -2.1558     0.0878 C.3     
  17 C17            1.8053    -2.7314    -1.2149 C.3     
  18 C18            3.0206    -1.9356    -1.6118 C.2     
  19 C19            3.3300    -0.7109    -1.1426 C.2     
  20 C20            2.4815     0.0315    -0.1398 C.3     
  21 C21            4.0746    -2.2934    -2.5426 C.ar    
  22 C22            4.9649    -1.1909    -2.5463 C.ar    
  23 O23            4.4766    -0.2789    -1.7003 O.3     
  24 C24            4.3067    -3.4209    -3.3323 C.ar    
  25 C25            5.4383    -3.4102    -4.1117 C.ar    
  26 C26            6.3127    -2.3369    -4.1196 C.ar    
  27 C27            6.1038    -1.2073    -3.3461 C.ar    
  28 C28           -0.4414    -0.7863     2.2963 C.1     
  29 N29           -0.1400    -1.3775     3.2183 N.1     
  30 H30            0.2198     0.7736    -1.9956 H       
  31 H31           -1.8610     1.9736    -1.9932 H       
  32 H32           -4.9107     1.9567     1.9432 H       
  33 H33           -4.1095     2.6366    -1.7749 H       
  34 H34           -5.4628     2.7041    -0.6206 H       
  35 H35            1.8701    -2.4494     0.9244 H       
  36 H36            0.2256    -2.5338     0.2430 H       
  37 H37            2.0858    -3.7734    -1.0614 H       
  38 H38            1.0537    -2.6664    -2.0016 H       
  39 H39            2.3037     1.0494    -0.4869 H       
  40 H40            2.9840     0.0519     0.8272 H       
  41 H41            3.6292    -4.2619    -3.3304 H       
  42 H42            5.6520    -4.2647    -4.7367 H       
  43 H43            7.1876    -2.3818    -4.7512 H       
  44 H44            6.7942    -0.3770    -3.3619 H       
@<TRIPOS>BOND
   1    1    2 2
   2    1   28 1
   3    1    6 1
   4    2    3 1
   5    2   12 1
   6    3    4 2
   7    3   30 1
   8    4    5 1
   9    4   31 1
  10    5    6 1
  11    5    7 1
  12    6    9 2
  13    7    8 2
  14    7   10 1
  15    8    9 1
  16    8   32 1
  17   10   11 1
  18   10   33 1
  19   10   34 1
  20   11   13 1
  21   11   14 1
  22   11   15 1
  23   12   16 1
  24   12   20 1
  25   16   17 1
  26   16   35 1
  27   16   36 1
  28   17   18 1
  29   17   37 1
  30   17   38 1
  31   18   19 2
  32   18   21 1
  33   19   20 1
  34   19   23 1
  35   20   39 1
  36   20   40 1
  37   21   22 ar
  38   21   24 ar
  39   22   23 1
  40   22   27 ar
  41   24   25 ar
  42   24   41 1
  43   25   26 ar
  44   25   42 1
  45   26   27 ar
  46   26   43 1
  47   27   44 1
  48   28   29 3

#	End of record

