#	Name: ASD03240500
#	Creating user name:	WinNT
#	Creation time:	15. 06. 2019 20:35

#	Modifying user name:	WinNT
#	Modification time:	15. 06. 2019 20:35

#	Program:	/corina/corina34_cracker 3.40 0067  02.08.2006

@<TRIPOS>MOLECULE
ASD03240500
  47   50    0    0    0
SMALL
NO_CHARGES


@<TRIPOS>ATOM
   1 C1             1.1899    -0.5600    -0.2018 C.ar    
   2 C2            -0.0292     0.0457     0.0433 C.ar    
   3 C3             2.3516     0.1849    -0.1728 C.ar    
   4 C4             2.2947     1.5490     0.1040 C.ar    
   5 C5             1.0643     2.1539     0.3501 C.ar    
   6 C6            -0.0914     1.3999     0.3181 C.ar    
   7 C7             3.5411     2.3551     0.1370 C.2     
   8 C8             3.6299     3.6921     0.3935 C.2     
   9 N9             4.9325     4.0342     0.3292 N.pl3   
  10 N10            5.6722     2.8848     0.0258 N.2     
  11 C11            4.8474     1.8774    -0.0848 C.2     
  12 C12           -1.2942    -0.7726     0.0102 C.3     
  13 C13           -1.3618    -1.5543    -1.3032 C.3     
  14 C14           -1.2997    -1.7360     1.1691 C.ar    
  15 C15           -2.2120    -1.5736     2.1959 C.ar    
  16 C16           -2.2216    -2.4534     3.2594 C.ar    
  17 C17           -1.3103    -3.5063     3.2973 C.ar    
  18 C18           -0.3936    -3.6653     2.2605 C.ar    
  19 C19           -0.3961    -2.7828     1.1992 C.ar    
  20 C20           -1.3157    -4.4555     4.4390 C.2     
  21 N21           -2.6486    -2.2578    -1.3887 N.3     
  22 C22           -2.7492    -3.0209    -2.6399 C.3     
  23 C23           -2.1807    -4.4164     5.5498 C.2     
  24 N24           -1.8772    -5.4150     6.3361 N.2     
  25 N25           -0.8152    -6.1253     5.7633 N.pl3   
  26 C26           -0.4875    -5.5277     4.6000 C.2     
  27 H27            1.2334    -1.6184    -0.4119 H       
  28 H28            3.3030    -0.2891    -0.3639 H       
  29 H29            1.0146     3.2112     0.5648 H       
  30 H30           -1.0459     1.8680     0.5084 H       
  31 H31            2.8060     4.3563     0.6091 H       
  32 H32            5.2946     4.9231     0.4689 H       
  33 H33            5.1193     0.8574    -0.3131 H       
  34 H34           -2.1571    -0.1107     0.0839 H       
  35 H35           -1.2685    -0.8644    -2.1419 H       
  36 H36           -0.5485    -2.2792    -1.3369 H       
  37 H37           -2.9178    -0.7568     2.1657 H       
  38 H38           -2.9341    -2.3256     4.0609 H       
  39 H39            0.3150    -4.4799     2.2851 H       
  40 H40            0.3141    -2.9051     0.3948 H       
  41 H41           -2.7876    -2.8560    -0.5882 H       
  42 H42           -3.7113    -3.5318    -2.6775 H       
  43 H43           -2.6655    -2.3411    -3.4879 H       
  44 H44           -1.9456    -3.7560    -2.6828 H       
  45 H45           -2.9591    -3.6878     5.7219 H       
  46 H46           -0.3910    -6.9135     6.1371 H       
  47 H47            0.2938    -5.8376     3.9217 H       
@<TRIPOS>BOND
   1    1    2 ar
   2    1    3 ar
   3    1   27 1
   4    2   12 1
   5    2    6 ar
   6    3    4 ar
   7    3   28 1
   8    4    5 ar
   9    4    7 1
  10    5    6 ar
  11    5   29 1
  12    6   30 1
  13    7    8 2
  14    7   11 1
  15    8    9 1
  16    8   31 1
  17    9   10 1
  18    9   32 1
  19   10   11 2
  20   11   33 1
  21   12   13 1
  22   12   14 1
  23   12   34 1
  24   13   21 1
  25   13   35 1
  26   13   36 1
  27   14   15 ar
  28   14   19 ar
  29   15   16 ar
  30   15   37 1
  31   16   17 ar
  32   16   38 1
  33   17   18 ar
  34   17   20 1
  35   18   19 ar
  36   18   39 1
  37   19   40 1
  38   20   23 1
  39   20   26 2
  40   21   22 1
  41   21   41 1
  42   22   42 1
  43   22   43 1
  44   22   44 1
  45   23   24 2
  46   23   45 1
  47   24   25 1
  48   25   26 1
  49   25   46 1
  50   26   47 1

#	End of record

