#	Name: ASD02030185
#	Creating user name:	WinNT
#	Creation time:	15. 06. 2019 20:14

#	Modifying user name:	WinNT
#	Modification time:	15. 06. 2019 20:14

#	Program:	/corina/corina34_cracker 3.40 0067  02.08.2006

@<TRIPOS>MOLECULE
ASD02030185
  57   61    0    0    0
SMALL
NO_CHARGES


@<TRIPOS>ATOM
   1 N1            -0.0189     1.6110    -0.3157 N.am    
   2 C2            -0.1498     0.1506    -0.4142 C.3     
   3 C3            -0.9798    -0.3484     0.7751 C.3     
   4 N4            -2.1987     0.4669     0.8721 N.am    
   5 C5            -2.0678     1.9274     0.9706 C.3     
   6 C6            -1.2376     2.4260    -0.2130 C.3     
   7 C7             1.1971     2.1922    -0.3139 C.2     
   8 C8             2.4168     1.3557    -0.2706 C.2     
   9 N9             2.4758     0.0180    -0.3626 N.2     
  10 N10            3.6604     1.7797    -0.1397 N.2     
  11 N11            4.4312     0.7470    -0.1466 N.pl3   
  12 N12            3.7188    -0.3166    -0.2810 N.2     
  13 O13            1.2918     3.4035    -0.3478 O.2     
  14 C14           -3.4147    -0.1142     0.8703 C.2     
  15 C15           -3.5299    -1.5912     0.8407 C.ar    
  16 O16           -4.4166     0.5730     0.8930 O.2     
  17 C17           -0.8596     3.8923     0.0063 C.3     
  18 C18           -2.0485     2.2886    -1.5032 C.3     
  19 N19           -2.4739    -2.3395     1.1341 N.ar    
  20 C20           -2.5339    -3.6533     1.1200 C.ar    
  21 C21           -3.7108    -4.3085     0.7953 C.ar    
  22 C22           -4.8382    -3.5651     0.4822 C.ar    
  23 C23           -4.7473    -2.1825     0.5107 C.ar    
  24 C24           -1.3056    -4.4571     1.4612 C.3     
  25 C25            5.8280     0.7775    -0.0298 C.ar    
  26 C26            6.5532    -0.4056    -0.0507 C.ar    
  27 C27            7.9316    -0.3720     0.0643 C.ar    
  28 C28            8.5860     0.8409     0.2004 C.ar    
  29 C29            7.8641     2.0200     0.2213 C.ar    
  30 C30            6.4886     1.9920     0.1011 C.ar    
  31 F31            8.6393    -1.5226     0.0441 F       
  32 C32           -1.1510    -4.9315     2.9075 C.3     
  33 C33           -1.5017    -5.9346     1.8068 C.3     
  34 H34           -0.6522    -0.1097    -1.3458 H       
  35 H35            0.8388    -0.3079    -0.3883 H       
  36 H36           -1.2499    -1.3930     0.6201 H       
  37 H37           -0.4000    -0.2502     1.6928 H       
  38 H38           -3.0564     2.3859     0.9447 H       
  39 H39           -1.5654     2.1877     1.9022 H       
  40 H40           -0.1072     3.9599     0.7921 H       
  41 H41           -0.4573     4.3060    -0.9184 H       
  42 H42           -1.7449     4.4555     0.3015 H       
  43 H43           -2.9596     2.8817    -1.4246 H       
  44 H44           -1.4547     2.6445    -2.3451 H       
  45 H45           -2.3088     1.2417    -1.6589 H       
  46 H46           -3.7493    -5.3878     0.7859 H       
  47 H47           -5.7672    -4.0524     0.2255 H       
  48 H48           -5.6058    -1.5722     0.2724 H       
  49 H49           -0.3990    -4.1820     0.9221 H       
  50 H50            6.0423    -1.3513    -0.1562 H       
  51 H51            9.6619     0.8658     0.2908 H       
  52 H52            8.3770     2.9644     0.3280 H       
  53 H53            5.9261     2.9138     0.1177 H       
  54 H54           -0.1427    -4.9688     3.3199 H       
  55 H55           -1.9377    -4.6622     3.6123 H       
  56 H56           -2.5191    -6.3253     1.7874 H       
  57 H57           -0.7241    -6.6319     1.4949 H       
@<TRIPOS>BOND
   1    1    2 1
   2    1    7 am
   3    1    6 1
   4    2    3 1
   5    2   34 1
   6    2   35 1
   7    3    4 1
   8    3   36 1
   9    3   37 1
  10    4    5 1
  11    4   14 am
  12    5    6 1
  13    5   38 1
  14    5   39 1
  15    6   17 1
  16    6   18 1
  17    7    8 1
  18    7   13 2
  19    8    9 1
  20    8   10 2
  21    9   12 2
  22   10   11 1
  23   11   12 1
  24   11   25 1
  25   14   15 1
  26   14   16 2
  27   15   19 ar
  28   15   23 ar
  29   17   40 1
  30   17   41 1
  31   17   42 1
  32   18   43 1
  33   18   44 1
  34   18   45 1
  35   19   20 ar
  36   20   21 ar
  37   20   24 1
  38   21   22 ar
  39   21   46 1
  40   22   23 ar
  41   22   47 1
  42   23   48 1
  43   24   32 1
  44   24   33 1
  45   24   49 1
  46   25   26 ar
  47   25   30 ar
  48   26   27 ar
  49   26   50 1
  50   27   28 ar
  51   27   31 1
  52   28   29 ar
  53   28   51 1
  54   29   30 ar
  55   29   52 1
  56   30   53 1
  57   32   33 1
  58   32   54 1
  59   32   55 1
  60   33   56 1
  61   33   57 1

#	End of record

