#	Name: ASD01883274
#	Creating user name:	WinNT
#	Creation time:	15. 06. 2019 19:46

#	Modifying user name:	WinNT
#	Modification time:	15. 06. 2019 19:46

#	Program:	/corina/corina34_cracker 3.40 0067  02.08.2006

@<TRIPOS>MOLECULE
ASD01883274
  55   58    0    0    0
SMALL
NO_CHARGES


@<TRIPOS>ATOM
   1 N1            -0.0162     1.3416     0.0083 N.am    
   2 C2             0.0021    -0.0035     0.0499 C.2     
   3 C3            -1.2159    -0.7267     0.0602 C.2     
   4 C4            -2.4263    -0.0109     0.0261 C.2     
   5 C5            -2.3786     1.3969    -0.0168 C.2     
   6 C6            -1.1852     2.0323    -0.0194 C.2     
   7 O7             1.0657    -0.5989     0.0784 O.2     
   8 C8            -1.2149    -2.1581     0.1039 C.1     
   9 N9            -1.2141    -3.2935     0.1385 N.1     
  10 C10            1.2513     2.0762    -0.0013 C.3     
  11 C11            1.7074     2.2875    -1.4464 C.3     
  12 C12            3.0311     3.0547    -1.4564 C.3     
  13 C13            4.1215     2.1988    -0.8089 C.3     
  14 C14            3.4241     3.3748    -2.9000 C.3     
  15 C15           -3.7214    -0.7206     0.0347 C.ar    
  16 C16           -4.5922    -0.5756     1.1183 C.ar    
  17 C17           -5.7986    -1.2383     1.1235 C.ar    
  18 C18           -6.1517    -2.0524     0.0508 C.ar    
  19 C19           -5.2863    -2.1991    -1.0297 C.ar    
  20 C20           -4.0813    -1.5340    -1.0434 C.ar    
  21 N21           -7.3724    -2.7213     0.0589 N.pl3   
  22 C22           -8.4394    -2.3715    -0.8944 C.3     
  23 C23           -9.7680    -2.3741    -0.1249 C.3     
  24 O24           -9.9626    -3.6668     0.4537 O.3     
  25 C25           -8.9330    -4.2066     1.1580 C.ar    
  26 C26           -7.6271    -3.7566     0.9721 C.ar    
  27 C27           -9.1825    -5.2222     2.0686 C.ar    
  28 C28           -8.1412    -5.7787     2.7876 C.ar    
  29 C29           -6.8471    -5.3276     2.6039 C.ar    
  30 C30           -6.5869    -4.3193     1.6951 C.ar    
  31 H31           -3.2948     1.9679    -0.0439 H       
  32 H32           -1.1610     3.1115    -0.0522 H       
  33 H33            1.1142     3.0437     0.4815 H       
  34 H34            2.0066     1.5047     0.5382 H       
  35 H35            1.8445     1.3199    -1.9293 H       
  36 H36            0.9521     2.8590    -1.9859 H       
  37 H37            2.9174     3.9829    -0.8965 H       
  38 H38            4.2353     1.2705    -1.3689 H       
  39 H39            5.0646     2.7453    -0.8160 H       
  40 H40            3.8416     1.9707     0.2196 H       
  41 H41            2.6473     3.9846    -3.3614 H       
  42 H42            4.3672     3.9214    -2.9072 H       
  43 H43            3.5379     2.4466    -3.4600 H       
  44 H44           -4.3186     0.0555     1.9509 H       
  45 H45           -6.4717    -1.1270     1.9607 H       
  46 H46           -5.5629    -2.8316    -1.8603 H       
  47 H47           -3.4105    -1.6480    -1.8821 H       
  48 H48           -8.2543    -1.3807    -1.3095 H       
  49 H49           -8.4750    -3.1087    -1.6965 H       
  50 H50           -9.7350    -1.6222     0.6635 H       
  51 H51          -10.5870    -2.1531    -0.8093 H       
  52 H52          -10.1912    -5.5785     2.2165 H       
  53 H53           -8.3393    -6.5692     3.4963 H       
  54 H54           -6.0375    -5.7667     3.1678 H       
  55 H55           -5.5758    -3.9678     1.5518 H       
@<TRIPOS>BOND
   1    1    2 am
   2    1   10 1
   3    1    6 1
   4    2    3 1
   5    2    7 2
   6    3    4 2
   7    3    8 1
   8    4    5 1
   9    4   15 1
  10    5    6 2
  11    5   31 1
  12    6   32 1
  13    8    9 3
  14   10   11 1
  15   10   33 1
  16   10   34 1
  17   11   12 1
  18   11   35 1
  19   11   36 1
  20   12   13 1
  21   12   14 1
  22   12   37 1
  23   13   38 1
  24   13   39 1
  25   13   40 1
  26   14   41 1
  27   14   42 1
  28   14   43 1
  29   15   16 ar
  30   15   20 ar
  31   16   17 ar
  32   16   44 1
  33   17   18 ar
  34   17   45 1
  35   18   19 ar
  36   18   21 1
  37   19   20 ar
  38   19   46 1
  39   20   47 1
  40   21   22 1
  41   21   26 1
  42   22   23 1
  43   22   48 1
  44   22   49 1
  45   23   24 1
  46   23   50 1
  47   23   51 1
  48   24   25 1
  49   25   26 ar
  50   25   27 ar
  51   26   30 ar
  52   27   28 ar
  53   27   52 1
  54   28   29 ar
  55   28   53 1
  56   29   30 ar
  57   29   54 1
  58   30   55 1

#	End of record

