#	Name: ASD09116229
#	Creating user name:	WinNT
#	Creation time:	15. 06. 2019 21:21

#	Modifying user name:	WinNT
#	Modification time:	15. 06. 2019 21:21

#	Program:	/corina/corina34_cracker 3.40 0067  02.08.2006

@<TRIPOS>MOLECULE
ASD09116229
  76   81    0    0    0
SMALL
NO_CHARGES


@<TRIPOS>ATOM
   1 N1             0.4123     1.7964    -3.1149 N.2     
   2 N2             0.5061     0.5533    -3.7612 N.pl3   
   3 C3             1.6329     2.1549    -2.7958 C.2     
   4 N4             2.4863     1.2086    -3.2045 N.2     
   5 C5             1.8216     0.2351    -3.7891 C.2     
   6 N6             1.9849     3.3330    -2.1372 N.pl3   
   7 C7             3.3144     3.5519    -1.7564 C.ar    
   8 C8             3.8096     4.8465    -1.6775 C.ar    
   9 C9             5.9450     3.9876    -1.0028 C.ar    
  10 C10            4.1361     2.4739    -1.4522 C.ar    
  11 C11           -0.5487    -0.2047    -4.2731 C.ar    
  12 N12           -0.3295    -1.0665    -5.2549 N.ar    
  13 N13           -1.2670    -1.7808    -5.7682 N.ar    
  14 C14           -2.5170    -1.6948    -5.3423 C.ar    
  15 C15           -2.8389    -0.8272    -4.2947 C.ar    
  16 C16           -1.8343    -0.0584    -3.7460 C.ar    
  17 C17           -3.6085    -2.4766    -5.9681 C.ar    
  18 C18           -4.7787    -1.8172    -6.3476 C.ar    
  19 C19           -4.8790    -0.3277    -6.1637 C.3     
  20 C20           -5.1411     0.0369    -4.7050 C.3     
  21 C21           -4.2460    -0.7774    -3.7747 C.3     
  22 C22           -3.4831    -3.8458    -6.1753 C.ar    
  23 C23           -4.5285    -4.5504    -6.7402 C.ar    
  24 C24           -5.6944    -3.8968    -7.0957 C.ar    
  25 C25           -5.8200    -2.5325    -6.8990 C.ar    
  26 N26            2.3696    -0.9099    -4.3352 N.pl3   
  27 C27            5.1213     5.0635    -1.3014 C.ar    
  28 N28            7.2752     4.2081    -0.6210 N.3     
  29 C29            8.0186     4.9019    -1.6804 C.3     
  30 C30            9.4957     4.9958    -1.2912 C.3     
  31 C31            9.6228     5.7583     0.0305 C.3     
  32 C32            8.8003     5.0417     1.1051 C.3     
  33 C33            7.3434     4.9465     0.6465 C.3     
  34 N34           11.0332     5.8010     0.4390 N.3     
  35 C35            5.4482     2.6904    -1.0760 C.ar    
  36 F36            6.2498     1.6424    -0.7858 F       
  37 C37           11.2082     6.6262     1.6417 C.3     
  38 C38           11.0866     8.1049     1.2678 C.3     
  39 C39           11.5619     4.4466     0.6484 C.3     
  40 C40           13.0909     4.4947     0.6765 C.3     
  41 H41            1.3085     4.0007    -1.9430 H       
  42 H42            3.1693     5.6844    -1.9105 H       
  43 H43            3.7497     1.4671    -1.5093 H       
  44 H44           -2.0354     0.6372    -2.9446 H       
  45 H45           -3.9456     0.1348    -6.4847 H       
  46 H46           -5.6943     0.0534    -6.7786 H       
  47 H47           -4.9398     1.0981    -4.5586 H       
  48 H48           -6.1852    -0.1658    -4.4665 H       
  49 H49           -4.6364    -1.7923    -3.6994 H       
  50 H50           -4.2466    -0.3197    -2.7854 H       
  51 H51           -2.5731    -4.3559    -5.8958 H       
  52 H52           -4.4351    -5.6137    -6.9049 H       
  53 H53           -6.5115    -4.4542    -7.5294 H       
  54 H54           -6.7335    -2.0284    -7.1778 H       
  55 H55            3.3291    -1.0494    -4.3072 H       
  56 H56            1.7947    -1.5741    -4.7466 H       
  57 H57            5.5058     6.0709    -1.2402 H       
  58 H58            7.9236     4.3472    -2.6138 H       
  59 H59            7.6131     5.9051    -1.8114 H       
  60 H60            9.9056     3.9927    -1.1735 H       
  61 H61           10.0445     5.5246    -2.0706 H       
  62 H62            9.2487     6.7741    -0.0975 H       
  63 H63            9.1992     4.0393     1.2605 H       
  64 H64            8.8522     5.6033     2.0379 H       
  65 H65            6.9410     5.9495     0.5046 H       
  66 H66            6.7579     4.4241     1.4031 H       
  67 H67           10.4399     6.3718     2.3718 H       
  68 H68           12.1929     6.4396     2.0702 H       
  69 H69           11.3124     8.7197     2.1390 H       
  70 H70           11.7898     8.3363     0.4677 H       
  71 H71           10.0711     8.3120     0.9302 H       
  72 H72           11.1932     4.0552     1.5965 H       
  73 H73           11.2337     3.7987    -0.1644 H       
  74 H74           13.4827     3.4933     0.8551 H       
  75 H75           13.4605     4.8642    -0.2800 H       
  76 H76           13.4188     5.1608     1.4746 H       
@<TRIPOS>BOND
   1    1    2 1
   2    1    3 2
   3    2   11 1
   4    2    5 1
   5    3    4 1
   6    3    6 1
   7    4    5 2
   8    5   26 1
   9    6    7 1
  10    6   41 1
  11    7    8 ar
  12    7   10 ar
  13    8   27 ar
  14    8   42 1
  15    9   35 ar
  16    9   28 1
  17    9   27 ar
  18   10   35 ar
  19   10   43 1
  20   11   12 ar
  21   11   16 ar
  22   12   13 ar
  23   13   14 ar
  24   14   15 ar
  25   14   17 1
  26   15   16 ar
  27   15   21 1
  28   16   44 1
  29   17   18 ar
  30   17   22 ar
  31   18   19 1
  32   18   25 ar
  33   19   20 1
  34   19   45 1
  35   19   46 1
  36   20   21 1
  37   20   47 1
  38   20   48 1
  39   21   49 1
  40   21   50 1
  41   22   23 ar
  42   22   51 1
  43   23   24 ar
  44   23   52 1
  45   24   25 ar
  46   24   53 1
  47   25   54 1
  48   26   55 1
  49   26   56 1
  50   27   57 1
  51   28   29 1
  52   28   33 1
  53   29   30 1
  54   29   58 1
  55   29   59 1
  56   30   31 1
  57   30   60 1
  58   30   61 1
  59   31   32 1
  60   31   34 1
  61   31   62 1
  62   32   33 1
  63   32   63 1
  64   32   64 1
  65   33   65 1
  66   33   66 1
  67   34   37 1
  68   34   39 1
  69   35   36 1
  70   37   38 1
  71   37   67 1
  72   37   68 1
  73   38   69 1
  74   38   70 1
  75   38   71 1
  76   39   40 1
  77   39   72 1
  78   39   73 1
  79   40   74 1
  80   40   75 1
  81   40   76 1

#	End of record

