#	Name: ASD02408010
#	Creating user name:	WinNT
#	Creation time:	15. 06. 2019 20:20

#	Modifying user name:	WinNT
#	Modification time:	15. 06. 2019 20:20

#	Program:	/corina/corina34_cracker 3.40 0067  02.08.2006

@<TRIPOS>MOLECULE
ASD02408010
  50   52    0    0    0
SMALL
NO_CHARGES


@<TRIPOS>ATOM
   1 C1            -0.4181     2.2357     0.0172 C.ar    
   2 C2            -0.6720     0.8947    -0.2010 C.ar    
   3 C3             1.0001     2.7453     0.0075 C.3     
   4 C4             1.5291     2.7851     1.4180 C.2     
   5 N5             2.7885     3.2142     1.6292 N.am    
   6 N6             0.7501     2.4075     2.3950 N.2     
   7 C7             1.1662     2.4222     3.6678 C.2     
   8 C8             2.4708     2.8536     3.9593 C.2     
   9 C9             3.2945     3.2633     2.8795 C.2     
  10 N10            0.3263     2.0202     4.6772 N.pl3   
  11 O11            4.4348     3.6467     3.0758 O.2     
  12 C12           -1.9731     0.4271    -0.1921 C.ar    
  13 C13           -3.0198     1.3006     0.0354 C.ar    
  14 C14           -2.7658     2.6418     0.2545 C.ar    
  15 C15           -1.4656     3.1105     0.2386 C.ar    
  16 C16            0.2937     2.7425     5.9563 C.3     
  17 C17           -0.5613     0.8633     4.4965 C.3     
  18 C18           -1.9972     1.2883     4.8196 C.3     
  19 C19           -2.0405     1.9008     6.2214 C.3     
  20 C20           -1.1535     3.1425     6.2599 C.3     
  21 C21           -3.4793     2.2949     6.5612 C.3     
  22 C22           -3.5442     2.7914     8.0069 C.3     
  23 O23           -4.8880     3.1595     8.3243 O.3     
  24 C24           -1.1886     4.5724     0.4774 C.3     
  25 C25            2.9533     2.8839     5.3072 C.1     
  26 N26            3.3360     2.9080     6.3766 N.1     
  27 H27            0.1458     0.2122    -0.3787 H       
  28 H28            1.6205     2.0817    -0.5947 H       
  29 H29            1.0226     3.7488    -0.4174 H       
  30 H30            3.3357     3.4898     0.8772 H       
  31 H31           -2.1716    -0.6206    -0.3633 H       
  32 H32           -4.0362     0.9355     0.0416 H       
  33 H33           -3.5837     3.3244     0.4319 H       
  34 H34            0.6686     2.0967     6.7503 H       
  35 H35            0.9131     3.6368     5.8867 H       
  36 H36           -0.5059     0.5181     3.4641 H       
  37 H37           -0.2575     0.0611     5.1690 H       
  38 H38           -2.3312     2.0258     4.0898 H       
  39 H39           -2.6514     0.4172     4.7828 H       
  40 H40           -1.6829     1.1709     6.9478 H       
  41 H41           -1.2016     3.5933     7.2512 H       
  42 H42           -1.4998     3.8602     5.5162 H       
  43 H43           -3.8070     3.0883     5.8895 H       
  44 H44           -4.1304     1.4285     6.4450 H       
  45 H45           -3.2165     1.9980     8.6786 H       
  46 H46           -2.8931     3.6578     8.1231 H       
  47 H47           -5.0039     3.4844     9.2277 H       
  48 H48           -1.0448     4.7455     1.5439 H       
  49 H49           -0.2881     4.8646    -0.0628 H       
  50 H50           -2.0326     5.1646     0.1238 H       
@<TRIPOS>BOND
   1    1    2 ar
   2    1    3 1
   3    1   15 ar
   4    2   12 ar
   5    2   27 1
   6    3    4 1
   7    3   28 1
   8    3   29 1
   9    4    5 1
  10    4    6 2
  11    5    9 am
  12    5   30 1
  13    6    7 1
  14    7    8 2
  15    7   10 1
  16    8    9 1
  17    8   25 1
  18    9   11 2
  19   10   16 1
  20   10   17 1
  21   12   13 ar
  22   12   31 1
  23   13   14 ar
  24   13   32 1
  25   14   15 ar
  26   14   33 1
  27   15   24 1
  28   16   20 1
  29   16   34 1
  30   16   35 1
  31   17   18 1
  32   17   36 1
  33   17   37 1
  34   18   19 1
  35   18   38 1
  36   18   39 1
  37   19   20 1
  38   19   21 1
  39   19   40 1
  40   20   41 1
  41   20   42 1
  42   21   22 1
  43   21   43 1
  44   21   44 1
  45   22   23 1
  46   22   45 1
  47   22   46 1
  48   23   47 1
  49   24   48 1
  50   24   49 1
  51   24   50 1
  52   25   26 3

#	End of record

