#	Name: ASD03091109
#	Creating user name:	WinNT
#	Creation time:	15. 06. 2019 20:30

#	Modifying user name:	WinNT
#	Modification time:	15. 06. 2019 20:30

#	Program:	/corina/corina34_cracker 3.40 0067  02.08.2006

@<TRIPOS>MOLECULE
ASD03091109
  42   44    0    0    0
SMALL
NO_CHARGES


@<TRIPOS>ATOM
   1 C1             1.5802    -1.1172    -2.3904 C.2     
   2 C2             0.7761    -1.2570    -1.1625 C.ar    
   3 C3             1.2529    -0.7469     0.0545 C.ar    
   4 C4             0.4891    -0.8830     1.2063 C.ar    
   5 C5            -0.7347    -1.5181     1.1553 C.ar    
   6 C6            -1.2133    -2.0262    -0.0480 C.ar    
   7 C7            -0.4670    -1.8931    -1.2058 C.ar    
   8 O8             2.6007    -0.4561    -2.3769 O.2     
   9 N9             1.1870    -1.7267    -3.5264 N.am    
  10 N10           -2.4566    -2.6690    -0.0890 N.3     
  11 C11           -2.3419    -4.0103    -0.7164 C.3     
  12 C12           -3.7752    -4.3532    -1.1729 C.3     
  13 C13           -4.4799    -2.9798    -1.3379 C.3     
  14 C14           -3.4059    -1.9366    -0.9655 C.3     
  15 N15           -4.8227    -4.2722    -3.3285 N.3     
  16 C16           -3.7163    -4.9415    -2.5980 C.3     
  17 C17           -4.7802    -2.8679    -2.8472 C.3     
  18 C18           -4.6104    -4.3377    -4.7806 C.3     
  19 C19            1.9860    -1.5877    -4.7465 C.3     
  20 N20            2.4874    -0.1070     0.1073 N.pl3   
  21 H21            0.8541    -0.4911     2.1442 H       
  22 H22           -1.3240    -1.6216     2.0544 H       
  23 H23           -0.8426    -2.2844    -2.1398 H       
  24 H24            0.3751    -2.2573    -3.5361 H       
  25 H25           -1.6693    -3.9724    -1.5733 H       
  26 H26           -1.9901    -4.7412     0.0116 H       
  27 H27           -4.2908    -5.0047    -0.4673 H       
  28 H28           -5.3744    -2.8929    -0.7211 H       
  29 H29           -3.8564    -1.1040    -0.4253 H       
  30 H30           -2.8973    -1.5790    -1.8608 H       
  31 H31           -2.7587    -4.7106    -3.0649 H       
  32 H32           -3.8764    -6.0193    -2.5709 H       
  33 H33           -5.7426    -2.3820    -3.0079 H       
  34 H34           -3.9868    -2.3171    -3.3524 H       
  35 H35           -4.5648    -5.3806    -5.0944 H       
  36 H36           -5.4350    -3.8403    -5.2911 H       
  37 H37           -3.6738    -3.8409    -5.0336 H       
  38 H38            1.5144    -2.1461    -5.5551 H       
  39 H39            2.0498    -0.5348    -5.0211 H       
  40 H40            2.9882    -1.9788    -4.5711 H       
  41 H41            3.1582    -0.2907    -0.5688 H       
  42 H42            2.6772     0.5228     0.8202 H       
@<TRIPOS>BOND
   1    1    2 1
   2    1    8 2
   3    1    9 am
   4    2    3 ar
   5    2    7 ar
   6    3    4 ar
   7    3   20 1
   8    4    5 ar
   9    4   21 1
  10    5    6 ar
  11    5   22 1
  12    6    7 ar
  13    6   10 1
  14    7   23 1
  15    9   19 1
  16    9   24 1
  17   10   11 1
  18   10   14 1
  19   11   12 1
  20   11   25 1
  21   11   26 1
  22   12   13 1
  23   12   16 1
  24   12   27 1
  25   13   14 1
  26   13   17 1
  27   13   28 1
  28   14   29 1
  29   14   30 1
  30   15   16 1
  31   15   17 1
  32   15   18 1
  33   16   31 1
  34   16   32 1
  35   17   33 1
  36   17   34 1
  37   18   35 1
  38   18   36 1
  39   18   37 1
  40   19   38 1
  41   19   39 1
  42   19   40 1
  43   20   41 1
  44   20   42 1

#	End of record

