#	Name: ASD01881605
#	Creating user name:	WinNT
#	Creation time:	15. 06. 2019 19:43

#	Modifying user name:	WinNT
#	Modification time:	15. 06. 2019 19:43

#	Program:	/corina/corina34_cracker 3.40 0067  02.08.2006

@<TRIPOS>MOLECULE
ASD01881605
  52   55    0    0    0
SMALL
NO_CHARGES


@<TRIPOS>ATOM
   1 C1            -0.0159     1.3227     0.0093 C.ar    
   2 N2             0.0021    -0.0041     0.0020 N.ar    
   3 C3             1.1434    -0.6656    -0.0124 C.ar    
   4 C4             2.3445     0.0523    -0.0200 C.ar    
   5 C5             2.2822     1.4502    -0.0119 C.ar    
   6 N6             1.1014     2.0384     0.0025 N.ar    
   7 C7            -1.2769     2.0013     0.0189 C.1     
   8 N8            -2.2772     2.5397     0.0265 N.1     
   9 C9             3.6500    -0.6504    -0.0357 C.ar    
  10 C10            4.8378     0.0799    -0.0431 C.ar    
  11 C11            6.0497    -0.5794    -0.0578 C.ar    
  12 C12            6.0879    -1.9624    -0.0652 C.ar    
  13 C13            4.9129    -2.6921    -0.0584 C.ar    
  14 C14            3.6948    -2.0435    -0.0374 C.ar    
  15 C15            7.3344     0.2084    -0.0663 C.3     
  16 O16            7.7533     0.4511     1.2782 O.3     
  17 N17           12.3553     3.2622     2.2389 N.pl3   
  18 N18           12.2828     3.2037     3.6385 N.2     
  19 N19           11.2282     2.5540     3.9857 N.2     
  20 C20           10.5477     2.1480     2.8953 C.ar    
  21 C21           11.2522     2.5911     1.7625 C.ar    
  22 C22            9.3613     1.4218     2.7227 C.ar    
  23 C23            8.9042     1.1550     1.4487 C.ar    
  24 C24            9.6132     1.6010     0.3359 C.ar    
  25 C25           10.7720     2.3088     0.4887 C.ar    
  26 C26           13.3967     3.9147     1.4414 C.3     
  27 C27           14.5182     2.9153     1.1513 C.3     
  28 C28           13.9521     1.7247     0.3748 C.3     
  29 C29           15.6058     3.5967     0.3184 C.3     
  30 C30           15.1183     2.4250     2.4706 C.3     
  31 Br31           8.3922     0.8121     4.2277 Br      
  32 H32            1.1506    -1.7456    -0.0179 H       
  33 H33            3.1875     2.0390    -0.0170 H       
  34 H34            4.8092     1.1595    -0.0377 H       
  35 H35            7.0388    -2.4742    -0.0767 H       
  36 H36            4.9487    -3.7715    -0.0649 H       
  37 H37            2.7780    -2.6143    -0.0269 H       
  38 H38            8.1044    -0.3579    -0.5902 H       
  39 H39            7.1740     1.1595    -0.5742 H       
  40 H40            9.2444     1.3849    -0.6559 H       
  41 H41           11.3146     2.6500    -0.3806 H       
  42 H42           12.9692     4.2640     0.5015 H       
  43 H43           13.7999     4.7629     1.9945 H       
  44 H44           13.5247     2.0740    -0.5650 H       
  45 H45           14.7512     1.0127     0.1682 H       
  46 H46           13.1773     1.2392     0.9682 H       
  47 H47           16.0091     4.4450     0.8716 H       
  48 H48           16.4048     2.8847     0.1118 H       
  49 H49           15.1783     3.9460    -0.6215 H       
  50 H50           14.3434     1.9395     3.0639 H       
  51 H51           15.9173     1.7130     2.2639 H       
  52 H52           15.5215     3.2732     3.0237 H       
@<TRIPOS>BOND
   1    1    2 ar
   2    1    6 ar
   3    1    7 1
   4    2    3 ar
   5    3    4 ar
   6    3   32 1
   7    4    5 ar
   8    4    9 1
   9    5    6 ar
  10    5   33 1
  11    7    8 3
  12    9   10 ar
  13    9   14 ar
  14   10   11 ar
  15   10   34 1
  16   11   12 ar
  17   11   15 1
  18   12   13 ar
  19   12   35 1
  20   13   14 ar
  21   13   36 1
  22   14   37 1
  23   15   16 1
  24   15   38 1
  25   15   39 1
  26   16   23 1
  27   17   18 1
  28   17   21 1
  29   17   26 1
  30   18   19 2
  31   19   20 1
  32   20   21 ar
  33   20   22 ar
  34   21   25 ar
  35   22   23 ar
  36   22   31 1
  37   23   24 ar
  38   24   25 ar
  39   24   40 1
  40   25   41 1
  41   26   27 1
  42   26   42 1
  43   26   43 1
  44   27   28 1
  45   27   29 1
  46   27   30 1
  47   28   44 1
  48   28   45 1
  49   28   46 1
  50   29   47 1
  51   29   48 1
  52   29   49 1
  53   30   50 1
  54   30   51 1
  55   30   52 1

#	End of record

