#	Name: ASD01900567
#	Creating user name:	WinNT
#	Creation time:	15. 06. 2019 19:52

#	Modifying user name:	WinNT
#	Modification time:	15. 06. 2019 19:52

#	Program:	/corina/corina34_cracker 3.40 0067  02.08.2006

@<TRIPOS>MOLECULE
ASD01900567
  42   45    0    0    0
SMALL
NO_CHARGES


@<TRIPOS>ATOM
   1 C1             0.0591     1.5214     0.5828 C.ar    
   2 C2             0.1588     0.2616     1.1778 C.ar    
   3 C3             1.3772    -0.4024     1.1487 C.ar    
   4 C4             2.4523     0.2158     0.5261 C.ar    
   5 C5             2.2790     1.4707    -0.0448 C.ar    
   6 N6             1.1140     2.0770    -0.0027 N.ar    
   7 C7            -1.2329     2.2399     0.5996 C.2     
   8 O8            -2.2029     1.7339     1.1297 O.2     
   9 N9            -1.3354     3.4557     0.0271 N.am    
  10 F10            3.6557    -0.3961     0.4761 F       
  11 F11           -0.9149    -0.3021     1.7734 F       
  12 C12           -2.5816     4.0871    -0.0562 C.ar    
  13 C13           -2.6696     5.4685     0.0610 C.ar    
  14 C14           -3.8996     6.0911    -0.0218 C.ar    
  15 C15           -5.0485     5.3355    -0.2223 C.ar    
  16 C16           -4.9599     3.9555    -0.3393 C.ar    
  17 C17           -3.7297     3.3332    -0.2618 C.ar    
  18 O18           -9.4589     8.9719    -0.7371 O.3     
  19 C19           -8.3555     8.4200    -1.4640 C.3     
  20 C20           -8.2119     6.9438    -1.0774 C.3     
  21 N21           -8.1823     6.8966     0.4027 N.am    
  22 C22           -9.1757     7.5843     1.2328 C.3     
  23 C23           -9.3009     9.0152     0.6814 C.3     
  24 C24           -7.0954     6.2068     0.7479 C.2     
  25 N25           -6.2988     5.9680    -0.3060 N.am    
  26 C26           -6.8488     6.4124    -1.4567 C.2     
  27 O27           -6.8542     5.8384     1.8807 O.2     
  28 O28           -6.3528     6.3898    -2.5628 O.2     
  29 Cl29          -4.0105     7.8173     0.1252 Cl      
  30 H30            1.4861    -1.3774     1.6002 H       
  31 H31            3.1138     1.9548    -0.5298 H       
  32 H32           -0.5454     3.8931    -0.3271 H       
  33 H33           -1.7765     6.0553     0.2172 H       
  34 H34           -5.8530     3.3684    -0.4948 H       
  35 H35           -3.6607     2.2597    -0.3574 H       
  36 H36           -8.5431     8.5025    -2.5346 H       
  37 H37           -7.4421     8.9569    -1.2084 H       
  38 H38           -9.0234     6.3413    -1.4855 H       
  39 H39          -10.1361     7.0734     1.1648 H       
  40 H40           -8.8399     7.6125     2.2694 H       
  41 H41           -8.4017     9.5793     0.9291 H       
  42 H42          -10.1680     9.5015     1.1282 H       
@<TRIPOS>BOND
   1    1    2 ar
   2    1    6 ar
   3    1    7 1
   4    2    3 ar
   5    2   11 1
   6    3    4 ar
   7    3   30 1
   8    4    5 ar
   9    4   10 1
  10    5    6 ar
  11    5   31 1
  12    7    8 2
  13    7    9 am
  14    9   12 1
  15    9   32 1
  16   12   13 ar
  17   12   17 ar
  18   13   14 ar
  19   13   33 1
  20   14   15 ar
  21   14   29 1
  22   15   16 ar
  23   15   25 1
  24   16   17 ar
  25   16   34 1
  26   17   35 1
  27   18   19 1
  28   18   23 1
  29   19   20 1
  30   19   36 1
  31   19   37 1
  32   20   21 1
  33   20   26 1
  34   20   38 1
  35   21   22 1
  36   21   24 am
  37   22   23 1
  38   22   39 1
  39   22   40 1
  40   23   41 1
  41   23   42 1
  42   24   25 am
  43   24   27 2
  44   25   26 am
  45   26   28 2

#	End of record

