#	Name: ASD02500534
#	Creating user name:	WinNT
#	Creation time:	15. 06. 2019 20:23

#	Modifying user name:	WinNT
#	Modification time:	15. 06. 2019 20:23

#	Program:	/corina/corina34_cracker 3.40 0067  02.08.2006

@<TRIPOS>MOLECULE
ASD02500534
  69   73    0    0    0
SMALL
NO_CHARGES


@<TRIPOS>ATOM
   1 N1             3.8937     3.0064    -1.7365 N.ar    
   2 C2             4.8236     2.5582    -0.9286 C.ar    
   3 C3             5.7641     1.6175    -1.3433 C.ar    
   4 C4             5.7310     1.1383    -2.6218 C.ar    
   5 C5             4.7307     1.6216    -3.4865 C.ar    
   6 C6             4.6341     1.1760    -4.8143 C.ar    
   7 C7             3.6524     1.6680    -5.6196 C.ar    
   8 C8             2.7419     2.6089    -5.1434 C.ar    
   9 C9             2.8064     3.0627    -3.8619 C.ar    
  10 C10            3.8056     2.5786    -3.0000 C.ar    
  11 S11            1.6424     4.2535    -3.2858 S.o2    
  12 O12            2.3963     5.2769    -2.6507 O.2     
  13 O13            0.7526     4.5001    -4.3660 O.2     
  14 N14            0.7457     3.5275    -2.0978 N.am    
  15 C15           -0.0429     2.4226    -2.3990 C.ar    
  16 C16           -0.0279     1.3097    -1.5628 C.ar    
  17 C17           -0.8073     0.2147    -1.8582 C.ar    
  18 C18           -1.6147     0.2207    -2.9994 C.ar    
  19 C19           -1.6275     1.3398    -3.8372 C.ar    
  20 C20           -0.8502     2.4339    -3.5332 C.ar    
  21 C21           -2.4510    -0.9516    -3.3193 C.2     
  22 O22           -3.5877    -0.7959    -3.7222 O.2     
  23 N23           -1.9552    -2.1954    -3.1651 N.am    
  24 C24           -2.7294    -3.2915    -3.5865 C.3     
  25 C25           -2.9951    -4.2557    -2.4025 C.3     
  26 N26           -1.7640    -4.9531    -2.0918 N.3     
  27 C27           -0.9440    -4.3397    -1.0264 C.3     
  28 C28           -0.8338    -2.8199    -1.1373 C.3     
  29 C29           -0.6154    -2.3589    -2.5649 C.3     
  30 C30           -2.0195    -6.3717    -1.8085 C.3     
  31 C31           -2.4536    -7.0662    -3.0735 C.ar    
  32 C32           -1.5053    -7.5118    -3.9816 C.ar    
  33 C33           -1.9076    -8.1510    -5.1456 C.ar    
  34 C34           -3.2522    -8.3435    -5.4002 C.ar    
  35 C35           -4.1990    -7.9004    -4.4970 C.ar    
  36 C36           -3.8015    -7.2656    -3.3285 C.ar    
  37 O37           -4.7330    -6.8353    -2.4375 O.3     
  38 C38           -6.1033    -7.0744    -2.7652 C.3     
  39 O39           -0.1830    -7.3224    -3.7320 O.3     
  40 H40            4.8620     2.9282     0.0853 H       
  41 H41            6.5188     1.2678    -0.6545 H       
  42 H42            6.4523     0.4092    -2.9602 H       
  43 H43            5.3346     0.4474    -5.1950 H       
  44 H44            3.5789     1.3246    -6.6409 H       
  45 H45            1.9727     2.9844    -5.8020 H       
  46 H46            0.7707     3.8730    -1.1918 H       
  47 H47            0.5963     1.3056    -0.6815 H       
  48 H48           -0.7950    -0.6485    -1.2093 H       
  49 H49           -2.2499     1.3473    -4.7197 H       
  50 H50           -0.8633     3.3007    -4.1774 H       
  51 H51           -3.6810    -2.9308    -3.9772 H       
  52 H52           -2.1976    -3.8261    -4.3735 H       
  53 H53           -3.3228    -3.6862    -1.5329 H       
  54 H54           -3.7634    -4.9764    -2.6826 H       
  55 H55           -1.3847    -4.5878    -0.0608 H       
  56 H56            0.0583    -4.7660    -1.0688 H       
  57 H57           -1.7511    -2.3709    -0.7565 H       
  58 H58            0.0027    -2.4813    -0.5260 H       
  59 H59           -0.0489    -3.1085    -3.1174 H       
  60 H60           -0.0842    -1.4072    -2.5750 H       
  61 H61           -1.1082    -6.8371    -1.4329 H       
  62 H62           -2.8064    -6.4565    -1.0590 H       
  63 H63           -1.1693    -8.4979    -5.8534 H       
  64 H64           -3.5633    -8.8409    -6.3070 H       
  65 H65           -5.2492    -8.0517    -4.6984 H       
  66 H66           -6.3444    -6.5767    -3.7044 H       
  67 H67           -6.2703    -8.1466    -2.8688 H       
  68 H68           -6.7402    -6.6824    -1.9723 H       
  69 H69            0.2327    -8.0460    -3.2433 H       
@<TRIPOS>BOND
   1    1    2 ar
   2    1   10 ar
   3    2    3 ar
   4    2   40 1
   5    3    4 ar
   6    3   41 1
   7    4    5 ar
   8    4   42 1
   9    5    6 ar
  10    5   10 ar
  11    6    7 ar
  12    6   43 1
  13    7    8 ar
  14    7   44 1
  15    8    9 ar
  16    8   45 1
  17    9   10 ar
  18    9   11 1
  19   11   12 2
  20   11   13 2
  21   11   14 am
  22   14   15 1
  23   14   46 1
  24   15   16 ar
  25   15   20 ar
  26   16   17 ar
  27   16   47 1
  28   17   18 ar
  29   17   48 1
  30   18   19 ar
  31   18   21 1
  32   19   20 ar
  33   19   49 1
  34   20   50 1
  35   21   22 2
  36   21   23 am
  37   23   24 1
  38   23   29 1
  39   24   25 1
  40   24   51 1
  41   24   52 1
  42   25   26 1
  43   25   53 1
  44   25   54 1
  45   26   27 1
  46   26   30 1
  47   27   28 1
  48   27   55 1
  49   27   56 1
  50   28   29 1
  51   28   57 1
  52   28   58 1
  53   29   59 1
  54   29   60 1
  55   30   31 1
  56   30   61 1
  57   30   62 1
  58   31   32 ar
  59   31   36 ar
  60   32   33 ar
  61   32   39 1
  62   33   34 ar
  63   33   63 1
  64   34   35 ar
  65   34   64 1
  66   35   36 ar
  67   35   65 1
  68   36   37 1
  69   37   38 1
  70   38   66 1
  71   38   67 1
  72   38   68 1
  73   39   69 1

#	End of record

