#	Name: ASD05313139
#	Creating user name:	WinNT
#	Creation time:	15. 06. 2019 20:58

#	Modifying user name:	WinNT
#	Modification time:	15. 06. 2019 20:58

#	Program:	/corina/corina34_cracker 3.40 0067  02.08.2006

@<TRIPOS>MOLECULE
ASD05313139
  41   43    0    0    0
SMALL
NO_CHARGES


@<TRIPOS>ATOM
   1 C1            -0.0720     0.8160     1.0258 C.2     
   2 C2             0.1142    -0.6198     0.5978 C.3     
   3 N3             0.9298     1.7313     1.0524 N.pl3   
   4 N4             1.4575    -0.7185    -0.0040 N.am    
   5 C5             2.5712    -0.0361     0.6721 C.3     
   6 C6             2.3165     1.4759     0.6650 C.3     
   7 N7            -0.8904     2.6388     1.7080 N.2     
   8 N8            -1.1537     1.4080     1.4288 N.2     
   9 C9             0.3775     2.8791     1.4931 C.2     
  10 C10            1.0878     4.1917     1.7025 C.3     
  11 C11            1.0296     5.0142     0.4137 C.3     
  12 C12            1.7507     6.3468     0.6263 C.3     
  13 C13            1.6584    -1.4144    -1.1406 C.2     
  14 O14            2.7501    -1.4032    -1.6752 O.2     
  15 C15            0.5517    -2.1911    -1.7368 C.ar    
  16 C16            0.3206    -2.1401    -3.1140 C.ar    
  17 C17           -0.7158    -2.8688    -3.6638 C.ar    
  18 C18           -1.5235    -3.6467    -2.8543 C.ar    
  19 C19           -1.2999    -3.7009    -1.4898 C.ar    
  20 C20           -0.2643    -2.9836    -0.9278 C.ar    
  21 C21           -0.9674    -2.8157    -5.1487 C.3     
  22 F22           -2.0606    -3.6291    -5.4658 F       
  23 F23           -1.2413    -1.4974    -5.5285 F       
  24 F24            0.1661    -3.2714    -5.8304 F       
  25 Cl25           1.3331    -1.1630    -4.1308 Cl      
  26 H26            0.0452    -1.2781     1.4639 H       
  27 H27           -0.6437    -0.8901    -0.1375 H       
  28 H28            2.6431    -0.3883     1.7011 H       
  29 H29            3.5021    -0.2508     0.1473 H       
  30 H30            2.4937     1.8704    -0.3355 H       
  31 H31            2.9878     1.9617     1.3732 H       
  32 H32            0.6023     4.7431     2.5077 H       
  33 H33            2.1284     4.0036     1.9668 H       
  34 H34            1.5151     4.4628    -0.3915 H       
  35 H35           -0.0110     5.2024     0.1494 H       
  36 H36            1.2653     6.8982     1.4315 H       
  37 H37            2.7913     6.1587     0.8906 H       
  38 H38            1.7093     6.9328    -0.2918 H       
  39 H39           -2.3329    -4.2144    -3.2892 H       
  40 H40           -1.9350    -4.3100    -0.8637 H       
  41 H41           -0.0882    -3.0313     0.1367 H       
@<TRIPOS>BOND
   1    1    2 1
   2    1    3 1
   3    1    8 2
   4    2    4 1
   5    2   26 1
   6    2   27 1
   7    3    6 1
   8    3    9 1
   9    4    5 1
  10    4   13 am
  11    5    6 1
  12    5   28 1
  13    5   29 1
  14    6   30 1
  15    6   31 1
  16    7    8 1
  17    7    9 2
  18    9   10 1
  19   10   11 1
  20   10   32 1
  21   10   33 1
  22   11   12 1
  23   11   34 1
  24   11   35 1
  25   12   36 1
  26   12   37 1
  27   12   38 1
  28   13   14 2
  29   13   15 1
  30   15   16 ar
  31   15   20 ar
  32   16   17 ar
  33   16   25 1
  34   17   18 ar
  35   17   21 1
  36   18   19 ar
  37   18   39 1
  38   19   20 ar
  39   19   40 1
  40   20   41 1
  41   21   22 1
  42   21   23 1
  43   21   24 1

#	End of record

