#	Name: ASD01900844
#	Creating user name:	WinNT
#	Creation time:	15. 06. 2019 19:52

#	Modifying user name:	WinNT
#	Modification time:	15. 06. 2019 19:52

#	Program:	/corina/corina34_cracker 3.40 0067  02.08.2006

@<TRIPOS>MOLECULE
ASD01900844
  60   64    0    0    0
SMALL
NO_CHARGES


@<TRIPOS>ATOM
   1 C1            -2.9730     4.7724    -1.7067 C.ar    
   2 C2            -3.4793     3.5290    -1.3924 C.ar    
   3 C3            -2.6552     2.5473    -0.8615 C.ar    
   4 C4            -1.3159     2.8033    -0.6317 C.ar    
   5 C5            -0.7940     4.0486    -0.9363 C.ar    
   6 C6            -1.6235     5.0409    -1.4888 C.ar    
   7 N7             0.5414     4.3591    -0.7050 N.pl3   
   8 C8             1.1924     5.3616    -1.5560 C.3     
   9 N9             0.3042     6.5062    -1.7618 N.am    
  10 C10           -1.0336     6.3509    -1.8134 C.2     
  11 C11            0.8536     7.7846    -1.9071 C.ar    
  12 C12            0.9662     8.3541    -3.1687 C.ar    
  13 C13            1.5089     9.6163    -3.3093 C.ar    
  14 C14            1.9407    10.3133    -2.1945 C.ar    
  15 C15            1.8296     9.7481    -0.9362 C.ar    
  16 C16            1.2820     8.4888    -0.7893 C.ar    
  17 O17           -1.7478     7.2847    -2.1253 O.2     
  18 Br18          -3.3692     0.8457    -0.4483 Br      
  19 C19            2.4840     5.8346    -0.8825 C.3     
  20 C20            1.5349     4.7315    -2.9090 C.3     
  21 C21            2.2748     5.7575    -3.7704 C.3     
  22 N22            3.5011     6.1825    -3.0836 N.3     
  23 C23            3.1956     6.8302    -1.8016 C.3     
  24 C24            4.3057     7.0639    -3.9401 C.3     
  25 C25            5.2156     7.9045    -3.0819 C.ar    
  26 C26            5.4069     9.2407    -3.3809 C.ar    
  27 C27            6.2410    10.0137    -2.5953 C.ar    
  28 C28            6.8857     9.4502    -1.5079 C.ar    
  29 C29            6.6939     8.1102    -1.2080 C.ar    
  30 C30            5.8536     7.3402    -1.9934 C.ar    
  31 F31            7.3221     7.5580    -0.1471 F       
  32 F32            7.7015    10.2050    -0.7397 F       
  33 C33            5.1465     6.2164    -4.8970 C.3     
  34 C34            4.2218     5.4255    -5.8245 C.3     
  35 Cl35           2.6235    11.8991    -2.3748 Cl      
  36 H36           -3.6177     5.5321    -2.1234 H       
  37 H37           -4.5251     3.3179    -1.5603 H       
  38 H38           -0.6802     2.0354    -0.2163 H       
  39 H39            1.0340     3.9210     0.0066 H       
  40 H40            0.6300     7.8103    -4.0392 H       
  41 H41            1.5967    10.0596    -4.2902 H       
  42 H42            2.1674    10.2942    -0.0677 H       
  43 H43            1.1914     8.0500     0.1934 H       
  44 H44            2.2447     6.3196     0.0639 H       
  45 H45            3.1340     4.9789    -0.6999 H       
  46 H46            2.1708     3.8599    -2.7542 H       
  47 H47            0.6167     4.4283    -3.4122 H       
  48 H48            2.5329     5.3080    -4.7293 H       
  49 H49            1.6330     6.6228    -3.9362 H       
  50 H50            2.5495     7.6909    -1.9743 H       
  51 H51            4.1221     7.1602    -1.3316 H       
  52 H52            3.6456     7.7137    -4.5147 H       
  53 H53            4.9044     9.6809    -4.2295 H       
  54 H54            6.3899    11.0573    -2.8301 H       
  55 H55            5.6996     6.2975    -1.7580 H       
  56 H56            5.7872     6.8675    -5.4917 H       
  57 H57            5.7636     5.5249    -4.3233 H       
  58 H58            3.3688     6.0449    -6.1016 H       
  59 H59            4.7682     5.1368    -6.7224 H       
  60 H60            3.8697     4.5312    -5.3102 H       
@<TRIPOS>BOND
   1    1    2 ar
   2    1    6 ar
   3    1   36 1
   4    2    3 ar
   5    2   37 1
   6    3    4 ar
   7    3   18 1
   8    4    5 ar
   9    4   38 1
  10    5    7 1
  11    5    6 ar
  12    6   10 1
  13    7    8 1
  14    7   39 1
  15    8    9 1
  16    8   20 1
  17    8   19 1
  18    9   10 am
  19    9   11 1
  20   10   17 2
  21   11   12 ar
  22   11   16 ar
  23   12   13 ar
  24   12   40 1
  25   13   14 ar
  26   13   41 1
  27   14   15 ar
  28   14   35 1
  29   15   16 ar
  30   15   42 1
  31   16   43 1
  32   19   23 1
  33   19   44 1
  34   19   45 1
  35   20   21 1
  36   20   46 1
  37   20   47 1
  38   21   22 1
  39   21   48 1
  40   21   49 1
  41   22   23 1
  42   22   24 1
  43   23   50 1
  44   23   51 1
  45   24   25 1
  46   24   33 1
  47   24   52 1
  48   25   26 ar
  49   25   30 ar
  50   26   27 ar
  51   26   53 1
  52   27   28 ar
  53   27   54 1
  54   28   29 ar
  55   28   32 1
  56   29   30 ar
  57   29   31 1
  58   30   55 1
  59   33   34 1
  60   33   56 1
  61   33   57 1
  62   34   58 1
  63   34   59 1
  64   34   60 1

#	End of record

