#	Name: ASD01917664
#	Creating user name:	WinNT
#	Creation time:	15. 06. 2019 20:09

#	Modifying user name:	WinNT
#	Modification time:	15. 06. 2019 20:09

#	Program:	/corina/corina34_cracker 3.40 0067  02.08.2006

@<TRIPOS>MOLECULE
ASD01917664
  55   58    0    0    0
SMALL
NO_CHARGES


@<TRIPOS>ATOM
   1 C1            -0.0166     1.3754     0.0096 C.ar    
   2 C2             0.0021    -0.0041     0.0020 C.ar    
   3 C3            -1.1965    -0.7152     0.0101 C.ar    
   4 C4            -2.4090    -0.0289     0.0258 C.ar    
   5 C5            -1.1814    -2.1990     0.0015 C.2     
   6 N6            -0.0845    -2.9833    -0.0136 N.2     
   7 C7            -2.2701    -3.0115     0.0133 C.2     
   8 N8            -1.8016    -4.2959    -0.0010 N.pl3   
   9 C9            -0.4520    -4.2340    -0.0172 C.2     
  10 C10           -2.6136    -5.5152     0.0051 C.3     
  11 C11           -2.7697    -6.0169     1.4421 C.3     
  12 C12            0.4782    -5.4194    -0.0374 C.3     
  13 C13            0.7708    -5.8040    -1.4649 C.2     
  14 N14            1.5857    -6.8445    -1.7289 N.am    
  15 O15            0.2729    -5.1772    -2.3760 O.2     
  16 C16            1.8845    -7.2367    -3.1147 C.3     
  17 C17            2.2048    -7.6141    -0.6391 C.3     
  18 C18            3.7120    -7.7028    -0.9009 C.3     
  19 N19            3.9409    -8.2403    -2.2487 N.3     
  20 C20            3.4050    -7.3410    -3.2740 C.3     
  21 C21            5.2859    -8.4872    -2.4624 C.ar    
  22 N22            5.6760    -8.9766    -3.6302 N.ar    
  23 N23            6.1533    -8.2234    -1.4963 N.ar    
  24 C24            7.4456    -8.4474    -1.6682 C.ar    
  25 C25            7.8875    -8.9639    -2.8761 C.ar    
  26 C26            6.9537    -9.2235    -3.8671 C.ar    
  27 C27           -2.4183     1.3511     0.0333 C.ar    
  28 C28           -1.2246     2.0538     0.0306 C.ar    
  29 C29            1.2787     2.1455     0.0014 C.3     
  30 F30           -1.2383     3.4048     0.0379 F       
  31 H31            0.9441    -0.5321    -0.0105 H       
  32 H32           -3.3401    -0.5761     0.0318 H       
  33 H33           -3.3049    -2.7028     0.0307 H       
  34 H34           -3.5967    -5.2991    -0.4131 H       
  35 H35           -2.1235    -6.2812    -0.5959 H       
  36 H36           -3.3739    -6.9241     1.4466 H       
  37 H37           -1.7866    -6.2330     1.8603 H       
  38 H38           -3.2598    -5.2509     2.0431 H       
  39 H39            1.4090    -5.1596     0.4669 H       
  40 H40            0.0088    -6.2585     0.4760 H       
  41 H41            1.4268    -8.2025    -3.3286 H       
  42 H42            1.4953    -6.4840    -3.8002 H       
  43 H43            2.0272    -7.1108     0.3113 H       
  44 H44            1.7784    -8.6169    -0.6109 H       
  45 H45            4.1533    -6.7089    -0.8259 H       
  46 H46            4.1711    -8.3616    -0.1638 H       
  47 H47            3.6366    -7.7374    -4.2626 H       
  48 H48            3.8543    -6.3541    -3.1630 H       
  49 H49            8.1480    -8.2301    -0.8771 H       
  50 H50            8.9371    -9.1559    -3.0432 H       
  51 H51            7.2652    -9.6261    -4.8196 H       
  52 H52           -3.3576     1.8839     0.0452 H       
  53 H53            1.5812     2.3367    -1.0282 H       
  54 H54            1.1412     3.0934     0.5216 H       
  55 H55            2.0507     1.5634     0.5047 H       
@<TRIPOS>BOND
   1    1    2 ar
   2    1   29 1
   3    1   28 ar
   4    2    3 ar
   5    2   31 1
   6    3    4 ar
   7    3    5 1
   8    4   27 ar
   9    4   32 1
  10    5    6 1
  11    5    7 2
  12    6    9 2
  13    7    8 1
  14    7   33 1
  15    8    9 1
  16    8   10 1
  17    9   12 1
  18   10   11 1
  19   10   34 1
  20   10   35 1
  21   11   36 1
  22   11   37 1
  23   11   38 1
  24   12   13 1
  25   12   39 1
  26   12   40 1
  27   13   14 am
  28   13   15 2
  29   14   16 1
  30   14   17 1
  31   16   20 1
  32   16   41 1
  33   16   42 1
  34   17   18 1
  35   17   43 1
  36   17   44 1
  37   18   19 1
  38   18   45 1
  39   18   46 1
  40   19   20 1
  41   19   21 1
  42   20   47 1
  43   20   48 1
  44   21   22 ar
  45   21   23 ar
  46   22   26 ar
  47   23   24 ar
  48   24   25 ar
  49   24   49 1
  50   25   26 ar
  51   25   50 1
  52   26   51 1
  53   27   28 ar
  54   27   52 1
  55   28   30 1
  56   29   53 1
  57   29   54 1
  58   29   55 1

#	End of record

