#	Name: ASD01912540
#	Creating user name:	WinNT
#	Creation time:	15. 06. 2019 19:59

#	Modifying user name:	WinNT
#	Modification time:	15. 06. 2019 19:59

#	Program:	/corina/corina34_cracker 3.40 0067  02.08.2006

@<TRIPOS>MOLECULE
ASD01912540
  61   65    0    0    0
SMALL
NO_CHARGES


@<TRIPOS>ATOM
   1 C1             0.1067     1.2562    -1.2143 C.ar    
   2 C2             0.1230    -0.1092    -1.0162 C.ar    
   3 C3             1.2273    -0.7102    -0.4118 C.ar    
   4 C4             2.3089     0.0744    -0.0113 C.ar    
   5 C5             2.2805     1.4388    -0.2150 C.ar    
   6 C6             1.1825     2.0289    -0.8149 C.ar    
   7 C7             1.2510    -2.1742    -0.1959 C.2     
   8 N8             2.3631    -2.9472    -0.0357 N.pl3   
   9 C9             0.1645    -2.9946    -0.1151 C.2     
  10 C10            0.6300    -4.3039     0.0942 C.2     
  11 N11            1.9458    -4.2724     0.1412 N.2     
  12 C12           -0.2159    -5.5139     0.2409 C.ar    
  13 N13           -1.5367    -5.4050     0.1766 N.ar    
  14 C14            0.3832    -6.7557     0.4393 C.ar    
  15 C15           -0.4191    -7.8757     0.5741 C.ar    
  16 C16           -1.7958    -7.7164     0.5058 C.ar    
  17 C17           -2.3231    -6.4546     0.3015 C.ar    
  18 C18            3.7498    -2.4748    -0.0476 C.3     
  19 C19            4.1997    -2.2021     1.3646 C.2     
  20 N20            5.4495    -1.7556     1.5994 N.am    
  21 O21            3.4370    -2.3843     2.2899 O.2     
  22 C22            5.9087    -1.4832     2.9699 C.3     
  23 C23            7.2394    -2.2103     3.1909 C.3     
  24 N24            8.1837    -1.8295     2.1321 N.3     
  25 C25            7.7019    -2.2533     0.8107 C.3     
  26 C26            6.3922    -1.5337     0.4925 C.3     
  27 C27            9.4456    -2.3379     2.3865 C.ar    
  28 N28           10.4268    -2.0913     1.5310 N.ar    
  29 C29           11.6442    -2.5623     1.7444 C.ar    
  30 C30           11.8864    -3.3213     2.8785 C.ar    
  31 C31           10.8374    -3.5602     3.7524 C.ar    
  32 N32            9.6450    -3.0552     3.4825 N.ar    
  33 C33           -2.7073    -8.9081     0.6467 C.3     
  34 C34            0.1891    -9.2375     0.7895 C.3     
  35 H35           -0.7457     1.7221    -1.6862 H       
  36 H36           -0.7175    -0.7114    -1.3281 H       
  37 H37            3.1665    -0.3851     0.4575 H       
  38 H38            3.1172     2.0474     0.0950 H       
  39 H39            1.1652     3.0972    -0.9725 H       
  40 H40           -0.8690    -2.6920    -0.1970 H       
  41 H41            1.4585    -6.8435     0.4870 H       
  42 H42           -3.3942    -6.3271     0.2483 H       
  43 H43            4.3896    -3.2373    -0.4918 H       
  44 H44            3.8164    -1.5582    -0.6336 H       
  45 H45            6.0513    -0.4106     3.1018 H       
  46 H46            5.1694    -1.8476     3.6831 H       
  47 H47            7.6494    -1.9314     4.1616 H       
  48 H48            7.0746    -3.2874     3.1612 H       
  49 H49            8.4474    -2.0056     0.0550 H       
  50 H50            7.5307    -3.3298     0.8140 H       
  51 H51            5.9727    -1.9289    -0.4326 H       
  52 H52            6.5781    -0.4650     0.3864 H       
  53 H53           12.4399    -2.3582     1.0432 H       
  54 H54           12.8710    -3.7184     3.0769 H       
  55 H55           10.9926    -4.1481     4.6450 H       
  56 H56           -2.9606    -9.0496     1.6974 H       
  57 H57           -3.6185    -8.7385     0.0730 H       
  58 H58           -2.2022    -9.7983     0.2718 H       
  59 H59            0.3026    -9.4198     1.8582 H       
  60 H60           -0.4614    -9.9984     0.3583 H       
  61 H61            1.1661    -9.2794     0.3081 H       
@<TRIPOS>BOND
   1    1    2 ar
   2    1    6 ar
   3    1   35 1
   4    2    3 ar
   5    2   36 1
   6    3    4 ar
   7    3    7 1
   8    4    5 ar
   9    4   37 1
  10    5    6 ar
  11    5   38 1
  12    6   39 1
  13    7    8 1
  14    7    9 2
  15    8   18 1
  16    8   11 1
  17    9   10 1
  18    9   40 1
  19   10   11 2
  20   10   12 1
  21   12   13 ar
  22   12   14 ar
  23   13   17 ar
  24   14   15 ar
  25   14   41 1
  26   15   16 ar
  27   15   34 1
  28   16   17 ar
  29   16   33 1
  30   17   42 1
  31   18   19 1
  32   18   43 1
  33   18   44 1
  34   19   20 am
  35   19   21 2
  36   20   22 1
  37   20   26 1
  38   22   23 1
  39   22   45 1
  40   22   46 1
  41   23   24 1
  42   23   47 1
  43   23   48 1
  44   24   25 1
  45   24   27 1
  46   25   26 1
  47   25   49 1
  48   25   50 1
  49   26   51 1
  50   26   52 1
  51   27   28 ar
  52   27   32 ar
  53   28   29 ar
  54   29   30 ar
  55   29   53 1
  56   30   31 ar
  57   30   54 1
  58   31   32 ar
  59   31   55 1
  60   33   56 1
  61   33   57 1
  62   33   58 1
  63   34   59 1
  64   34   60 1
  65   34   61 1

#	End of record

