#	Name: ASD05940082
#	Creating user name:	WinNT
#	Creation time:	15. 06. 2019 21:04

#	Modifying user name:	WinNT
#	Modification time:	15. 06. 2019 21:04

#	Program:	/corina/corina34_cracker 3.40 0067  02.08.2006

@<TRIPOS>MOLECULE
ASD05940082
  64   68    0    0    0
SMALL
NO_CHARGES


@<TRIPOS>ATOM
   1 N1             0.2069     1.5599     0.6879 N.ar    
   2 C2             0.1233     0.2412     0.6364 C.ar    
   3 N3             1.1810    -0.5236     0.4158 N.ar    
   4 C4             2.3820     0.0188     0.2362 C.ar    
   5 C5             2.5070     1.4069     0.2688 C.ar    
   6 C6             1.3745     2.1785     0.5094 C.ar    
   7 N7             1.4583     3.5633     0.5620 N.pl3   
   8 O8            -1.0845    -0.3466     0.8158 O.3     
   9 C9            -2.1980     0.5176     1.0514 C.3     
  10 N10            3.5016    -0.7711     0.0422 N.3     
  11 C11            3.9179    -0.8145    -1.3627 C.3     
  12 C12            3.8786     0.5827    -1.9752 C.3     
  13 C13            4.4760     1.5904    -1.0299 C.2     
  14 N14            3.7613     1.9995     0.0414 N.am    
  15 O15            5.5889     2.0309    -1.2278 O.2     
  16 C16            3.2884    -2.1253     0.5702 C.3     
  17 C17            4.4876    -2.9819     0.2550 C.ar    
  18 C18            5.5911    -2.9589     1.0869 C.ar    
  19 C19            6.6912    -3.7447     0.7978 C.ar    
  20 C20            6.6874    -4.5537    -0.3229 C.ar    
  21 C21            5.5832    -4.5773    -1.1546 C.ar    
  22 C22            4.4816    -3.7950    -0.8632 C.ar    
  23 C23            5.5791    -5.4590    -2.3768 C.3     
  24 N24            5.0372    -6.7788    -2.0267 N.3     
  25 C25            4.7952    -7.5880    -3.2352 C.3     
  26 C26            5.5965    -8.8973    -3.0767 C.3     
  27 C27            5.7925    -9.0034    -1.5414 C.3     
  28 C28            5.9668    -7.5162    -1.1447 C.3     
  29 C29           -3.4869    -0.1233     0.5078 C.3     
  30 C30           -4.4340    -0.2989     1.7128 C.3     
  31 C31           -3.9456     0.7558     2.7366 C.3     
  32 C32           -2.4067     0.7090     2.5679 C.3     
  33 H33            2.3129     4.0028     0.4304 H       
  34 H34            0.6622     4.0913     0.7304 H       
  35 H35           -2.0296     1.4821     0.5723 H       
  36 H36            4.9332    -1.2062    -1.4251 H       
  37 H37            3.2456    -1.4694    -1.9171 H       
  38 H38            4.4451     0.5832    -2.9065 H       
  39 H39            2.8440     0.8548    -2.1842 H       
  40 H40            4.1043     2.6838     0.6373 H       
  41 H41            3.1504    -2.0766     1.6503 H       
  42 H42            2.4008    -2.5592     0.1097 H       
  43 H43            5.5941    -2.3268     1.9626 H       
  44 H44            7.5538    -3.7262     1.4474 H       
  45 H45            7.5470    -5.1670    -0.5492 H       
  46 H46            3.6191    -3.8135    -1.5128 H       
  47 H47            4.9593    -5.0052    -3.1501 H       
  48 H48            6.5981    -5.5712    -2.7472 H       
  49 H49            3.7323    -7.8123    -3.3245 H       
  50 H50            5.1379    -7.0481    -4.1179 H       
  51 H51            5.0254    -9.7465    -3.4519 H       
  52 H52            6.5586    -8.8242    -3.5839 H       
  53 H53            4.9123    -9.4343    -1.0643 H       
  54 H54            6.6863    -9.5790    -1.3007 H       
  55 H55            6.9931    -7.1942    -1.3209 H       
  56 H56            5.6959    -7.3681    -0.0993 H       
  57 H57           -3.9446     0.5306    -0.2346 H       
  58 H58           -3.2632    -1.0935     0.0642 H       
  59 H59           -5.4646    -0.0982     1.4204 H       
  60 H60           -4.3425    -1.3032     2.1266 H       
  61 H61           -4.3317     1.7441     2.4869 H       
  62 H62           -4.2320     0.4726     3.7494 H       
  63 H63           -1.9878    -0.1324     3.1198 H       
  64 H64           -1.9579     1.6453     2.8995 H       
@<TRIPOS>BOND
   1    1    2 ar
   2    1    6 ar
   3    2    3 ar
   4    2    8 1
   5    3    4 ar
   6    4    5 ar
   7    4   10 1
   8    5    6 ar
   9    5   14 1
  10    6    7 1
  11    7   33 1
  12    7   34 1
  13    8    9 1
  14    9   29 1
  15    9   32 1
  16    9   35 1
  17   10   11 1
  18   10   16 1
  19   11   12 1
  20   11   36 1
  21   11   37 1
  22   12   13 1
  23   12   38 1
  24   12   39 1
  25   13   14 am
  26   13   15 2
  27   14   40 1
  28   16   17 1
  29   16   41 1
  30   16   42 1
  31   17   18 ar
  32   17   22 ar
  33   18   19 ar
  34   18   43 1
  35   19   20 ar
  36   19   44 1
  37   20   21 ar
  38   20   45 1
  39   21   22 ar
  40   21   23 1
  41   22   46 1
  42   23   24 1
  43   23   47 1
  44   23   48 1
  45   24   25 1
  46   24   28 1
  47   25   26 1
  48   25   49 1
  49   25   50 1
  50   26   27 1
  51   26   51 1
  52   26   52 1
  53   27   28 1
  54   27   53 1
  55   27   54 1
  56   28   55 1
  57   28   56 1
  58   29   30 1
  59   29   57 1
  60   29   58 1
  61   30   31 1
  62   30   59 1
  63   30   60 1
  64   31   32 1
  65   31   61 1
  66   31   62 1
  67   32   63 1
  68   32   64 1

#	End of record

