#	Name: ASD03330055
#	Creating user name:	WinNT
#	Creation time:	15. 06. 2019 20:36

#	Modifying user name:	WinNT
#	Modification time:	15. 06. 2019 20:36

#	Program:	/corina/corina34_cracker 3.40 0067  02.08.2006

@<TRIPOS>MOLECULE
ASD03330055
  72   76    0    0    0
SMALL
NO_CHARGES


@<TRIPOS>ATOM
   1 C1             0.3090     0.7260    -0.6758 C.2     
   2 C2            -0.2225    -0.3396    -0.0132 C.2     
   3 C3             1.5123     1.1755    -0.1731 C.2     
   4 C4             1.9710     0.4681     0.9151 C.2     
   5 S5             0.8325    -0.8115     1.3111 S.3     
   6 C6             3.2271     0.7419     1.6386 C.ar    
   7 C7             3.5492     2.0489     2.0139 C.ar    
   8 C8             4.0958    -0.3058     1.9558 C.ar    
   9 C9             5.2680    -0.0454     2.6317 C.ar    
  10 C10            5.5866     1.2561     2.9980 C.ar    
  11 C11            4.7235     2.2999     2.6895 C.ar    
  12 O12            6.7428     1.5080     3.6650 O.3     
  13 C13            2.2490     2.3225    -0.7555 C.ar    
  14 C14            1.7071     3.6052    -0.6951 C.ar    
  15 C15            3.4903     2.1227    -1.3611 C.ar    
  16 C16            4.1720     3.1950    -1.9014 C.ar    
  17 C17            3.6259     4.4659    -1.8428 C.ar    
  18 C18            2.3973     4.6697    -1.2385 C.ar    
  19 C19           -1.4876    -0.9950    -0.3540 C.2     
  20 O20           -2.4704    -0.3245    -0.6111 O.2     
  21 Cl21           4.1761     0.5296    -1.4345 Cl      
  22 Cl22           4.4881     5.8099    -2.5240 Cl      
  23 C23            7.0086     2.8687     4.0114 C.3     
  24 C24            8.3448     2.9547     4.7518 C.3     
  25 C25            8.6294     4.4116     5.1227 C.3     
  26 N26            9.9124     4.4942     5.8335 N.3     
  27 N27           -1.5632    -2.3403    -0.3829 N.am    
  28 C28           -2.7989    -3.0117    -0.8086 C.3     
  29 C29           -0.4096    -3.1634     0.0048 C.3     
  30 C30           -0.1046    -4.1493    -1.1274 C.3     
  31 C31           -1.3668    -4.9505    -1.4546 C.3     
  32 C32           -2.4621    -3.9996    -1.9299 C.3     
  33 C33           -1.0615    -5.9452    -2.5448 C.ar    
  34 C34           -1.6692    -5.8245    -3.7805 C.ar    
  35 C35           -1.3892    -6.7369    -4.7805 C.ar    
  36 C36           -0.5012    -7.7697    -4.5449 C.ar    
  37 C37            0.1072    -7.8899    -3.3095 C.ar    
  38 C38           -0.1695    -6.9750    -2.3109 C.ar    
  39 C39           -1.8298    -5.6835    -0.2219 C.2     
  40 N40           -3.0051    -6.3430    -0.2317 N.am    
  41 O41           -1.1448    -5.6798     0.7789 O.2     
  42 H42           -0.1717     1.1798    -1.5298 H       
  43 H43            2.8788     2.8611     1.7744 H       
  44 H44            3.8486    -1.3181     1.6720 H       
  45 H45            5.9399    -0.8545     2.8772 H       
  46 H46            4.9754     3.3103     2.9759 H       
  47 H47            0.7486     3.7658    -0.2243 H       
  48 H48            5.1329     3.0421    -2.3701 H       
  49 H49            1.9759     5.6632    -1.1960 H       
  50 H50            7.0561     3.4718     3.1047 H       
  51 H51            6.2120     3.2421     4.6549 H       
  52 H52            8.2973     2.3516     5.6584 H       
  53 H53            9.1414     2.5813     4.1083 H       
  54 H54            8.6769     5.0147     4.2160 H       
  55 H55            7.8328     4.7849     5.7662 H       
  56 H56           10.1232     5.4471     6.0895 H       
  57 H57            9.9162     3.8928     6.6437 H       
  58 H58           -3.2315    -3.5498     0.0348 H       
  59 H59           -3.5094    -2.2709    -1.1753 H       
  60 H60            0.4558    -2.5228     0.1745 H       
  61 H61           -0.6434    -3.7142     0.9158 H       
  62 H62            0.2168    -3.5994    -2.0119 H       
  63 H63            0.6872    -4.8297    -0.8139 H       
  64 H64           -3.3544    -4.5711    -2.1857 H       
  65 H65           -2.1149    -3.4543    -2.8075 H       
  66 H66           -2.3630    -5.0175    -3.9646 H       
  67 H67           -1.8646    -6.6430    -5.7457 H       
  68 H68           -0.2830    -8.4830    -5.3260 H       
  69 H69            0.8007    -8.6971    -3.1253 H       
  70 H70            0.3058    -7.0689    -1.3457 H       
  71 H71           -3.5189    -6.4063    -1.0520 H       
  72 H72           -3.3373    -6.7543     0.5815 H       
@<TRIPOS>BOND
   1    1    2 2
   2    1    3 1
   3    1   42 1
   4    2   19 1
   5    2    5 1
   6    3    4 2
   7    3   13 1
   8    4    5 1
   9    4    6 1
  10    6    7 ar
  11    6    8 ar
  12    7   11 ar
  13    7   43 1
  14    8    9 ar
  15    8   44 1
  16    9   10 ar
  17    9   45 1
  18   10   11 ar
  19   10   12 1
  20   11   46 1
  21   12   23 1
  22   13   14 ar
  23   13   15 ar
  24   14   18 ar
  25   14   47 1
  26   15   16 ar
  27   15   21 1
  28   16   17 ar
  29   16   48 1
  30   17   18 ar
  31   17   22 1
  32   18   49 1
  33   19   20 2
  34   19   27 am
  35   23   24 1
  36   23   50 1
  37   23   51 1
  38   24   25 1
  39   24   52 1
  40   24   53 1
  41   25   26 1
  42   25   54 1
  43   25   55 1
  44   26   56 1
  45   26   57 1
  46   27   28 1
  47   27   29 1
  48   28   32 1
  49   28   58 1
  50   28   59 1
  51   29   30 1
  52   29   60 1
  53   29   61 1
  54   30   31 1
  55   30   62 1
  56   30   63 1
  57   31   32 1
  58   31   33 1
  59   31   39 1
  60   32   64 1
  61   32   65 1
  62   33   34 ar
  63   33   38 ar
  64   34   35 ar
  65   34   66 1
  66   35   36 ar
  67   35   67 1
  68   36   37 ar
  69   36   68 1
  70   37   38 ar
  71   37   69 1
  72   38   70 1
  73   39   40 am
  74   39   41 2
  75   40   71 1
  76   40   72 1

#	End of record

