#	Name: ASD03331220
#	Creating user name:	WinNT
#	Creation time:	15. 06. 2019 20:38

#	Modifying user name:	WinNT
#	Modification time:	15. 06. 2019 20:38

#	Program:	/corina/corina34_cracker 3.40 0067  02.08.2006

@<TRIPOS>MOLECULE
ASD03331220
  46   48    0    0    0
SMALL
NO_CHARGES


@<TRIPOS>ATOM
   1 N1            -0.0473     1.4520     0.2797 N.am    
   2 C2            -0.0348     0.0079     0.5583 C.3     
   3 C3             0.7363    -0.6973    -0.5626 C.3     
   4 N4             2.0620    -0.0805    -0.7039 N.3     
   5 C5             1.9540     1.3281    -1.1068 C.3     
   6 C6             1.2329     2.1163    -0.0083 C.3     
   7 C7            -1.2020     2.1471     0.2828 C.2     
   8 O8            -2.2608     1.5664     0.4248 O.2     
   9 N9            -1.1831     3.4859     0.1284 N.am    
  10 C10           -2.3851     4.1963     0.0330 C.ar    
  11 C11           -2.4015     5.5679     0.2480 C.ar    
  12 C12           -3.5894     6.2663     0.1526 C.ar    
  13 C13           -4.7613     5.6010    -0.1566 C.ar    
  14 C14           -4.7483     4.2348    -0.3714 C.ar    
  15 C15           -3.5631     3.5317    -0.2827 C.ar    
  16 C16            2.8961    -0.8357    -1.6482 C.3     
  17 C17            4.1445    -0.0496    -1.9557 C.ar    
  18 C18            5.2758    -0.2183    -1.1796 C.ar    
  19 C19            6.4214     0.5028    -1.4606 C.ar    
  20 C20            6.4360     1.3929    -2.5187 C.ar    
  21 C21            5.3031     1.5616    -3.2962 C.ar    
  22 C22            4.1595     0.8359    -3.0173 C.ar    
  23 Br23           5.3214     2.7790    -4.7431 Br      
  24 Br24           8.0025     2.3799    -2.9030 Br      
  25 C25           -1.1247     6.2938     0.5856 C.3     
  26 H26            0.4572    -0.1765     1.5133 H       
  27 H27           -1.0575    -0.3675     0.5915 H       
  28 H28            0.8507    -1.7531    -0.3168 H       
  29 H29            0.1876    -0.5989    -1.4992 H       
  30 H30            2.9516     1.7412    -1.2558 H       
  31 H31            1.3884     1.3983    -2.0359 H       
  32 H32            1.0482     3.1349    -0.3496 H       
  33 H33            1.8467     2.1346     0.8923 H       
  34 H34           -0.3364     3.9570     0.0834 H       
  35 H35           -3.6029     7.3331     0.3201 H       
  36 H36           -5.6889     6.1492    -0.2303 H       
  37 H37           -5.6653     3.7179    -0.6128 H       
  38 H38           -3.5528     2.4655    -0.4549 H       
  39 H39            3.1697    -1.7936    -1.2057 H       
  40 H40            2.3385    -1.0069    -2.5690 H       
  41 H41            5.2647    -0.9135    -0.3532 H       
  42 H42            7.3048     0.3711    -0.8535 H       
  43 H43            3.2754     0.9671    -3.6235 H       
  44 H44           -0.6427     6.6277    -0.3332 H       
  45 H45           -1.3520     7.1570     1.2111 H       
  46 H46           -0.4559     5.6216     1.1232 H       
@<TRIPOS>BOND
   1    1    2 1
   2    1    6 1
   3    1    7 am
   4    2    3 1
   5    2   26 1
   6    2   27 1
   7    3    4 1
   8    3   28 1
   9    3   29 1
  10    4    5 1
  11    4   16 1
  12    5    6 1
  13    5   30 1
  14    5   31 1
  15    6   32 1
  16    6   33 1
  17    7    8 2
  18    7    9 am
  19    9   10 1
  20    9   34 1
  21   10   11 ar
  22   10   15 ar
  23   11   12 ar
  24   11   25 1
  25   12   13 ar
  26   12   35 1
  27   13   14 ar
  28   13   36 1
  29   14   15 ar
  30   14   37 1
  31   15   38 1
  32   16   17 1
  33   16   39 1
  34   16   40 1
  35   17   18 ar
  36   17   22 ar
  37   18   19 ar
  38   18   41 1
  39   19   20 ar
  40   19   42 1
  41   20   21 ar
  42   20   24 1
  43   21   22 ar
  44   21   23 1
  45   22   43 1
  46   25   44 1
  47   25   45 1
  48   25   46 1

#	End of record

