#	Name: ASD01914349
#	Creating user name:	WinNT
#	Creation time:	15. 06. 2019 20:03

#	Modifying user name:	WinNT
#	Modification time:	15. 06. 2019 20:03

#	Program:	/corina/corina34_cracker 3.40 0067  02.08.2006

@<TRIPOS>MOLECULE
ASD01914349
  47   50    0    0    0
SMALL
NO_CHARGES


@<TRIPOS>ATOM
   1 C1             0.0473     1.2210    -0.2685 C.2     
   2 N2             0.0118    -0.1317    -0.2639 N.pl3   
   3 C3            -1.2073    -0.9386    -0.1630 C.3     
   4 C4            -2.3411    -0.0730     0.3973 C.3     
   5 N5            -2.3524     1.2215    -0.3009 N.am    
   6 C6            -1.1762     2.0988    -0.1512 C.3     
   7 C7            -3.0600     4.0562    -0.8929 C.ar    
   8 C8            -3.4472     2.9469    -1.6473 C.ar    
   9 C9            -3.4057     1.5949    -1.0543 C.2     
  10 C10           -3.1015     5.3158    -1.4524 C.ar    
  11 C11           -3.5256     5.4840    -2.7593 C.ar    
  12 C12           -3.8749     3.1226    -2.9673 C.ar    
  13 C13            1.3325     1.6046    -0.3867 C.2     
  14 C14            2.1192     0.4475    -0.4517 C.2     
  15 N15            1.3263    -0.5927    -0.3758 N.2     
  16 C16            3.6196     0.4062    -0.5858 C.3     
  17 O17            4.2141     0.3995     0.7136 O.3     
  18 C18            5.5714     0.3634     0.7711 C.ar    
  19 C19            6.2149     0.3548     2.0001 C.ar    
  20 C20            7.5947     0.3177     2.0558 C.ar    
  21 C21            8.3343     0.2890     0.8879 C.ar    
  22 C22            6.3157     0.3292    -0.3992 C.ar    
  23 O23           -4.3218     0.8189    -1.2456 O.2     
  24 C24            7.6954     0.2979    -0.3382 C.ar    
  25 C25           -3.9110     4.3921    -3.5144 C.ar    
  26 C26            1.8345     3.0245    -0.4400 C.3     
  27 F27           -4.2519     2.0556    -3.7052 F       
  28 H28           -1.4838    -1.3055    -1.1514 H       
  29 H29           -1.0308    -1.7831     0.5033 H       
  30 H30           -3.2948    -0.5779     0.2434 H       
  31 H31           -2.1823     0.0897     1.4633 H       
  32 H32           -1.1948     2.5823     0.8256 H       
  33 H33           -1.1708     2.8514    -0.9396 H       
  34 H34           -2.7329     3.9284     0.1284 H       
  35 H35           -2.8021     6.1740    -0.8691 H       
  36 H36           -3.5560     6.4735    -3.1911 H       
  37 H37            3.9117    -0.4958    -1.1236 H       
  38 H38            3.9595     1.2835    -1.1363 H       
  39 H39            5.6376     0.3776     2.9126 H       
  40 H40            8.0961     0.3113     3.0123 H       
  41 H41            9.4130     0.2599     0.9335 H       
  42 H42            5.8169     0.3313    -1.3572 H       
  43 H43            8.2754     0.2758    -1.2490 H       
  44 H44           -4.2411     4.5307    -4.5333 H       
  45 H45            2.0480     3.3726     0.5706 H       
  46 H46            2.7447     3.0658    -1.0383 H       
  47 H47            1.0741     3.6621    -0.8909 H       
@<TRIPOS>BOND
   1    1    2 1
   2    1   13 2
   3    1    6 1
   4    2    3 1
   5    2   15 1
   6    3    4 1
   7    3   28 1
   8    3   29 1
   9    4    5 1
  10    4   30 1
  11    4   31 1
  12    5    6 1
  13    5    9 am
  14    6   32 1
  15    6   33 1
  16    7    8 ar
  17    7   10 ar
  18    7   34 1
  19    8    9 1
  20    8   12 ar
  21    9   23 2
  22   10   11 ar
  23   10   35 1
  24   11   25 ar
  25   11   36 1
  26   12   27 1
  27   12   25 ar
  28   13   14 1
  29   13   26 1
  30   14   15 2
  31   14   16 1
  32   16   17 1
  33   16   37 1
  34   16   38 1
  35   17   18 1
  36   18   19 ar
  37   18   22 ar
  38   19   20 ar
  39   19   39 1
  40   20   21 ar
  41   20   40 1
  42   21   24 ar
  43   21   41 1
  44   22   24 ar
  45   22   42 1
  46   24   43 1
  47   25   44 1
  48   26   45 1
  49   26   46 1
  50   26   47 1

#	End of record

