#	Name: ASD09116080
#	Creating user name:	WinNT
#	Creation time:	15. 06. 2019 21:20

#	Modifying user name:	WinNT
#	Modification time:	15. 06. 2019 21:20

#	Program:	/corina/corina34_cracker 3.40 0067  02.08.2006

@<TRIPOS>MOLECULE
ASD09116080
  72   77    0    0    0
SMALL
NO_CHARGES


@<TRIPOS>ATOM
   1 C1             0.3006     1.2771    -1.3599 C.ar    
   2 N2             0.2599    -0.0909    -1.1258 N.pl3   
   3 N3             1.3075    -0.8953    -0.6487 N.2     
   4 C4             0.8464    -2.1205    -0.5730 C.2     
   5 N5            -0.4303    -2.1351    -0.9745 N.2     
   6 C6            -0.8050    -0.9187    -1.3073 C.2     
   7 N7            -2.0535    -0.5493    -1.7675 N.pl3   
   8 N8             1.5710    -3.2315    -0.1431 N.pl3   
   9 C9             0.8348     2.1620    -0.3968 C.ar    
  10 N10           -0.1557     1.7869    -2.4953 N.ar    
  11 C11           -0.1227     3.0885    -2.7320 C.ar    
  12 N12            0.3569     3.9576    -1.8740 N.ar    
  13 C13            0.8485     3.5481    -0.6954 C.ar    
  14 C14            0.9356    -4.4679    -0.0013 C.ar    
  15 C15           -0.4134    -4.5197     0.3288 C.ar    
  16 C16           -1.0217    -5.7537     0.4275 C.ar    
  17 C17           -0.3032    -6.9137     0.2046 C.ar    
  18 C18            1.0522    -6.8955    -0.0562 C.ar    
  19 C19            1.6480    -5.6332    -0.1950 C.ar    
  20 C20            1.3674     4.4491     0.2432 C.ar    
  21 C21            1.8565     3.9810     1.4306 C.ar    
  22 C22            1.8460     2.6092     1.7227 C.ar    
  23 C23            1.3437     1.7086     0.8273 C.ar    
  24 O24            2.3395     2.1714     2.9116 O.3     
  25 C25            2.3012     0.7630     3.1508 C.3     
  26 O26            2.3599     4.8560     2.3397 O.3     
  27 C27            2.3441     6.2403     1.9855 C.3     
  28 C28           -1.0643    -8.2219     0.1668 C.3     
  29 C29           -1.1798    -8.7725    -1.2526 C.3     
  30 N30            0.1223    -8.9838    -1.8663 N.3     
  31 C31            0.8203   -10.0110    -1.1259 C.3     
  32 C32            1.4435    -9.4068     0.1228 C.3     
  33 C33            2.0436    -8.0310    -0.1411 C.3     
  34 C34           -0.0164    -9.3564    -3.2805 C.3     
  35 C35           -0.8275    -8.2853    -4.0307 C.3     
  36 C36            0.0960    -7.7242    -5.1317 C.3     
  37 C37            1.1251    -8.8554    -5.3773 C.3     
  38 C38            1.3715    -9.4088    -3.9518 C.3     
  39 H39           -2.7495    -1.2170    -1.8706 H       
  40 H40           -2.2344     0.3779    -1.9877 H       
  41 H41            2.5162    -3.1460     0.0575 H       
  42 H42           -0.5074     3.4515    -3.6735 H       
  43 H43           -0.9734    -3.6131     0.5047 H       
  44 H44           -2.0695    -5.8143     0.6819 H       
  45 H45            2.6949    -5.5720    -0.4532 H       
  46 H46            1.3813     5.5077     0.0297 H       
  47 H47            1.3395     0.6541     1.0610 H       
  48 H48            1.2682     0.4167     3.1170 H       
  49 H49            2.8821     0.2486     2.3853 H       
  50 H50            2.7241     0.5496     4.1325 H       
  51 H51            1.3165     6.5588     1.8102 H       
  52 H52            2.7732     6.8279     2.7970 H       
  53 H53            2.9305     6.3901     1.0789 H       
  54 H54           -0.5461    -8.9516     0.7890 H       
  55 H55           -2.0653    -8.0613     0.5672 H       
  56 H56           -1.7145    -9.7218    -1.2214 H       
  57 H57           -1.7473    -8.0678    -1.8604 H       
  58 H58            0.1177   -10.7935    -0.8393 H       
  59 H59            1.6028   -10.4414    -1.7508 H       
  60 H60            0.6769    -9.3166     0.8925 H       
  61 H61            2.2282   -10.0717     0.4836 H       
  62 H62            2.4857    -8.0312    -1.1374 H       
  63 H63            2.8364    -7.8537     0.5856 H       
  64 H64           -0.5094   -10.3249    -3.3645 H       
  65 H65           -1.7136    -8.7342    -4.4795 H       
  66 H66           -1.1181    -7.4890    -3.3454 H       
  67 H67           -0.4723    -7.5217    -6.0396 H       
  68 H68            0.5976    -6.8207    -4.7850 H       
  69 H69            0.7050    -9.6261    -6.0236 H       
  70 H70            2.0460    -8.4546    -5.8007 H       
  71 H71            2.0792    -8.7774    -3.4146 H       
  72 H72            1.7341   -10.4356    -3.9986 H       
@<TRIPOS>BOND
   1    1    2 1
   2    1    9 ar
   3    1   10 ar
   4    2    3 1
   5    2    6 1
   6    3    4 2
   7    4    5 1
   8    4    8 1
   9    5    6 2
  10    6    7 1
  11    7   39 1
  12    7   40 1
  13    8   14 1
  14    8   41 1
  15    9   13 ar
  16    9   23 ar
  17   10   11 ar
  18   11   12 ar
  19   11   42 1
  20   12   13 ar
  21   13   20 ar
  22   14   15 ar
  23   14   19 ar
  24   15   16 ar
  25   15   43 1
  26   16   17 ar
  27   16   44 1
  28   17   18 ar
  29   17   28 1
  30   18   19 ar
  31   18   33 1
  32   19   45 1
  33   20   21 ar
  34   20   46 1
  35   21   22 ar
  36   21   26 1
  37   22   23 ar
  38   22   24 1
  39   23   47 1
  40   24   25 1
  41   25   48 1
  42   25   49 1
  43   25   50 1
  44   26   27 1
  45   27   51 1
  46   27   52 1
  47   27   53 1
  48   28   29 1
  49   28   54 1
  50   28   55 1
  51   29   30 1
  52   29   56 1
  53   29   57 1
  54   30   31 1
  55   30   34 1
  56   31   32 1
  57   31   58 1
  58   31   59 1
  59   32   33 1
  60   32   60 1
  61   32   61 1
  62   33   62 1
  63   33   63 1
  64   34   35 1
  65   34   38 1
  66   34   64 1
  67   35   36 1
  68   35   65 1
  69   35   66 1
  70   36   37 1
  71   36   67 1
  72   36   68 1
  73   37   38 1
  74   37   69 1
  75   37   70 1
  76   38   71 1
  77   38   72 1

#	End of record

