#	Name: ASD00431217
#	Creating user name:	WinNT
#	Creation time:	15. 06. 2019 18:35

#	Modifying user name:	WinNT
#	Modification time:	15. 06. 2019 18:35

#	Program:	/corina/corina34_cracker 3.40 0067  02.08.2006

@<TRIPOS>MOLECULE
ASD00431217
  49   51    0    0    0
SMALL
NO_CHARGES


@<TRIPOS>ATOM
   1 C1            -0.3762     1.6952    -0.6370 C.2     
   2 C2            -0.5777     0.2421    -0.9822 C.3     
   3 O3             0.7299     2.1030    -0.3520 O.2     
   4 N4            -1.4241     2.5425    -0.6502 N.am    
   5 C5            -1.2283     3.9551    -0.3146 C.3     
   6 C6            -0.7828     4.7189    -1.5632 C.3     
   7 O7            -3.7518     4.2887    -0.2840 O.3     
   8 N8            -4.6021     4.8970     0.3234 N.2     
   9 C9            -4.0763     5.6266     1.2799 C.2     
  10 C10           -2.6700     5.4033     1.2182 C.2     
  11 C11           -2.5231     4.5348     0.1937 C.2     
  12 S12           -4.0646     7.4725     3.5027 S.3     
  13 C13           -5.6069     8.0457     3.9662 C.2     
  14 N14           -6.5255     7.5289     3.2096 N.2     
  15 C15           -6.1305     6.6991     2.2692 C.2     
  16 C16           -4.7961     6.5017     2.2273 C.2     
  17 O17           -5.8371     8.9149     4.9790 O.3     
  18 C18           -7.1279     9.1957     5.2978 C.ar    
  19 C19           -7.8814     8.2771     6.0123 C.ar    
  20 C20           -9.1993     8.5673     6.3366 C.ar    
  21 C21           -9.7592     9.7773     5.9442 C.ar    
  22 C22           -9.0051    10.6896     5.2325 C.ar    
  23 C23           -7.6909    10.4046     4.9132 C.ar    
  24 N24           -9.9619     7.6444     7.0559 N.pl3   
  25 C25          -11.3529     7.9517     7.3977 C.3     
  26 C26          -12.1294     6.6483     7.5958 C.3     
  27 C27          -11.3918     8.7699     8.6900 C.3     
  28 H28            0.3766    -0.2812    -0.9226 H       
  29 H29           -1.2813    -0.2041    -0.2794 H       
  30 H30           -0.9741     0.1608    -1.9943 H       
  31 H31           -2.3081     2.2172    -0.8819 H       
  32 H32           -0.4634     4.0425     0.4570 H       
  33 H33            0.1538     4.2996    -1.9308 H       
  34 H34           -1.5477     4.6315    -2.3348 H       
  35 H35           -0.6370     5.7699    -1.3135 H       
  36 H36           -1.9005     5.8298     1.8446 H       
  37 H37           -6.8158     6.2163     1.5882 H       
  38 H38           -7.4438     7.3375     6.3157 H       
  39 H39          -10.7847    10.0041     6.1957 H       
  40 H40           -9.4419    11.6294     4.9285 H       
  41 H41           -7.1025    11.1220     4.3605 H       
  42 H42           -9.5705     6.8000     7.3292 H       
  43 H43          -11.8071     8.5261     6.5903 H       
  44 H44          -11.6752     6.0740     8.4032 H       
  45 H45          -13.1643     6.8770     7.8501 H       
  46 H46          -12.1017     6.0654     6.6752 H       
  47 H47          -12.4267     8.9986     8.9443 H       
  48 H48          -10.9376     8.1956     9.4975 H       
  49 H49          -10.8386     9.6985     8.5489 H       
@<TRIPOS>BOND
   1    1    2 1
   2    1    3 2
   3    1    4 am
   4    2   28 1
   5    2   29 1
   6    2   30 1
   7    4    5 1
   8    4   31 1
   9    5    6 1
  10    5   11 1
  11    5   32 1
  12    6   33 1
  13    6   34 1
  14    6   35 1
  15    7    8 1
  16    7   11 1
  17    8    9 2
  18    9   10 1
  19    9   16 1
  20   10   11 2
  21   10   36 1
  22   12   13 1
  23   12   16 1
  24   13   14 2
  25   13   17 1
  26   14   15 1
  27   15   16 2
  28   15   37 1
  29   17   18 1
  30   18   19 ar
  31   18   23 ar
  32   19   20 ar
  33   19   38 1
  34   20   21 ar
  35   20   24 1
  36   21   22 ar
  37   21   39 1
  38   22   23 ar
  39   22   40 1
  40   23   41 1
  41   24   25 1
  42   24   42 1
  43   25   26 1
  44   25   27 1
  45   25   43 1
  46   26   44 1
  47   26   45 1
  48   26   46 1
  49   27   47 1
  50   27   48 1
  51   27   49 1

#	End of record

