#	Name: ASD08070238
#	Creating user name:	WinNT
#	Creation time:	15. 06. 2019 21:14

#	Modifying user name:	WinNT
#	Modification time:	15. 06. 2019 21:14

#	Program:	/corina/corina34_cracker 3.40 0067  02.08.2006

@<TRIPOS>MOLECULE
ASD08070238
  34   35    0    0    0
SMALL
NO_CHARGES


@<TRIPOS>ATOM
   1 C1            -0.0169     1.3942     0.0097 C.ar    
   2 C2             0.0021    -0.0041     0.0020 C.ar    
   3 C3            -1.2578    -0.7823     0.0094 C.2     
   4 N4            -1.2178    -2.1295     0.0018 N.am    
   5 O5            -2.3280    -0.2062     0.0223 O.2     
   6 C6             1.2439    -0.6470    -0.0133 C.ar    
   7 C7             2.3940     0.1180    -0.0202 C.ar    
   8 N8             2.3312     1.4347    -0.0125 N.ar    
   9 C9             1.1820     2.0803     0.0019 C.ar    
  10 C10           -2.4055    -2.8632     0.0087 C.2     
  11 C11           -2.4883    -4.2020     0.0023 C.2     
  12 C12           -3.7790    -4.7028     0.0114 C.2     
  13 C13           -4.7412    -3.7800     0.0252 C.2     
  14 S14           -4.0237    -2.1744     0.0349 S.3     
  15 C15           -4.0744    -6.1806     0.0057 C.3     
  16 C16           -3.4555    -6.8291     1.2455 C.3     
  17 C17           -5.5888    -6.3981     0.0185 C.3     
  18 C18           -3.4787    -6.8148    -1.2528 C.3     
  19 H19           -0.9548     1.9297     0.0171 H       
  20 H20           -0.3638    -2.5893    -0.0085 H       
  21 H21            1.3028    -1.7254    -0.0193 H       
  22 H22            3.3578    -0.3693    -0.0316 H       
  23 H23            1.1778     3.1602     0.0078 H       
  24 H24           -1.6164    -4.8393    -0.0095 H       
  25 H25           -5.8011    -3.9872     0.0338 H       
  26 H26           -3.8798    -6.3773     2.1421 H       
  27 H27           -3.6691    -7.8980     1.2414 H       
  28 H28           -2.3766    -6.6742     1.2364 H       
  29 H29           -6.0297    -5.9360    -0.8648 H       
  30 H30           -5.8024    -7.4669     0.0144 H       
  31 H31           -6.0132    -5.9462     0.9151 H       
  32 H32           -2.3998    -6.6599    -1.2619 H       
  33 H33           -3.6923    -7.8837    -1.2569 H       
  34 H34           -3.9196    -6.3528    -2.1361 H       
@<TRIPOS>BOND
   1    1    2 ar
   2    1    9 ar
   3    1   19 1
   4    2    3 1
   5    2    6 ar
   6    3    4 am
   7    3    5 2
   8    4   10 1
   9    4   20 1
  10    6    7 ar
  11    6   21 1
  12    7    8 ar
  13    7   22 1
  14    8    9 ar
  15    9   23 1
  16   10   11 2
  17   10   14 1
  18   11   12 1
  19   11   24 1
  20   12   13 2
  21   12   15 1
  22   13   14 1
  23   13   25 1
  24   15   16 1
  25   15   17 1
  26   15   18 1
  27   16   26 1
  28   16   27 1
  29   16   28 1
  30   17   29 1
  31   17   30 1
  32   17   31 1
  33   18   32 1
  34   18   33 1
  35   18   34 1

#	End of record

