#	Name: ASD03092450
#	Creating user name:	WinNT
#	Creation time:	15. 06. 2019 20:32

#	Modifying user name:	WinNT
#	Modification time:	15. 06. 2019 20:32

#	Program:	/corina/corina34_cracker 3.40 0067  02.08.2006

@<TRIPOS>MOLECULE
ASD03092450
  59   62    0    0    0
SMALL
NO_CHARGES


@<TRIPOS>ATOM
   1 C1            -0.1062     2.1225     0.7705 C.3     
   2 C2            -0.1159     0.6067     0.9785 C.3     
   3 C3             1.2137     1.3535     0.8548 C.3     
   4 C4            -0.5726     4.1561    -0.5696 C.2     
   5 C5            -0.5301     2.6501    -0.6017 C.3     
   6 O6            -0.2915     4.7491     0.4503 O.2     
   7 N7            -0.9229     4.8440    -1.6744 N.am    
   8 C8            -0.9642     6.3081    -1.6433 C.3     
   9 S9            -1.4023     7.7504    -5.3481 S.3     
  10 C10           -2.8732     7.4001    -4.5507 C.2     
  11 N11           -2.6408     6.9384    -3.3588 N.2     
  12 C12           -1.3817     6.8277    -2.9949 C.2     
  13 C13           -0.4954     7.2189    -3.9343 C.2     
  14 C14            3.1109     8.2641    -4.0129 C.ar    
  15 C15            1.7414     8.3219    -4.1544 C.ar    
  16 C16            0.9744     7.2036    -3.8010 C.ar    
  17 C17            1.6421     6.0706    -3.3172 C.ar    
  18 C18            3.0156     6.1004    -3.2087 C.ar    
  19 N19            3.6998     7.1758    -3.5527 N.ar    
  20 C20            3.7465     4.8890    -2.6899 C.3     
  21 C21            3.9485     9.4572    -4.3950 C.3     
  22 N22           -4.1309     7.5825    -5.0963 N.3     
  23 C23           -4.0400     8.1203    -6.4615 C.3     
  24 C24           -5.4483     8.2501    -7.0479 C.3     
  25 O25           -6.2413     9.0770    -6.1919 O.3     
  26 C26           -6.3515     8.5826    -4.8545 C.3     
  27 C27           -4.9524     8.4561    -4.2459 C.3     
  28 C28           -5.3664     8.8839    -8.4380 C.3     
  29 C29           -6.0872     6.8640    -7.1543 C.3     
  30 H30           -0.3790     2.7488     1.6200 H       
  31 H31           -0.3950     0.2358     1.9647 H       
  32 H32           -0.4242    -0.0146     0.1377 H       
  33 H33            1.7802     1.2234    -0.0673 H       
  34 H34            1.8094     1.4738     1.7597 H       
  35 H35            0.1873     2.3227    -1.3542 H       
  36 H36           -1.5187     2.2639    -0.8499 H       
  37 H37           -1.1477     4.3697    -2.4901 H       
  38 H38           -1.6816     6.6354    -0.8907 H       
  39 H39            0.0244     6.6943    -1.3951 H       
  40 H40            1.2664     9.2157    -4.5312 H       
  41 H41            1.0888     5.1877    -3.0332 H       
  42 H42            4.0062     4.2367    -3.5236 H       
  43 H43            4.6559     5.2047    -2.1785 H       
  44 H44            3.1060     4.3494    -1.9922 H       
  45 H45            4.0670    10.1099    -3.5301 H       
  46 H46            4.9285     9.1200    -4.7327 H       
  47 H47            3.4559    10.0046    -5.1986 H       
  48 H48           -3.5647     9.1009    -6.4356 H       
  49 H49           -3.4490     7.4449    -7.0801 H       
  50 H50           -6.9465     9.2746    -4.2585 H       
  51 H51           -6.8329     7.6047    -4.8665 H       
  52 H52           -5.0274     8.0259    -3.2472 H       
  53 H53           -4.4917     9.4421    -4.1845 H       
  54 H54           -4.7588     8.2552    -9.0888 H       
  55 H55           -6.3693     8.9761    -8.8549 H       
  56 H56           -4.9129     9.8721    -8.3606 H       
  57 H57           -6.1466     6.4143    -6.1631 H       
  58 H58           -7.0897     6.9570    -7.5718 H       
  59 H59           -5.4803     6.2330    -7.8037 H       
@<TRIPOS>BOND
   1    1    2 1
   2    1    3 1
   3    1    5 1
   4    1   30 1
   5    2    3 1
   6    2   31 1
   7    2   32 1
   8    3   33 1
   9    3   34 1
  10    4    5 1
  11    4    6 2
  12    4    7 am
  13    5   35 1
  14    5   36 1
  15    7    8 1
  16    7   37 1
  17    8   12 1
  18    8   38 1
  19    8   39 1
  20    9   10 1
  21    9   13 1
  22   10   11 2
  23   10   22 1
  24   11   12 1
  25   12   13 2
  26   13   16 1
  27   14   15 ar
  28   14   19 ar
  29   14   21 1
  30   15   16 ar
  31   15   40 1
  32   16   17 ar
  33   17   18 ar
  34   17   41 1
  35   18   19 ar
  36   18   20 1
  37   20   42 1
  38   20   43 1
  39   20   44 1
  40   21   45 1
  41   21   46 1
  42   21   47 1
  43   22   23 1
  44   22   27 1
  45   23   24 1
  46   23   48 1
  47   23   49 1
  48   24   25 1
  49   24   28 1
  50   24   29 1
  51   25   26 1
  52   26   27 1
  53   26   50 1
  54   26   51 1
  55   27   52 1
  56   27   53 1
  57   28   54 1
  58   28   55 1
  59   28   56 1
  60   29   57 1
  61   29   58 1
  62   29   59 1

#	End of record

