#	Name: ASD05430216
#	Creating user name:	WinNT
#	Creation time:	15. 06. 2019 21:00

#	Modifying user name:	WinNT
#	Modification time:	15. 06. 2019 21:00

#	Program:	/corina/corina34_cracker 3.40 0067  02.08.2006

@<TRIPOS>MOLECULE
ASD05430216
  72   77    0    0    0
SMALL
NO_CHARGES


@<TRIPOS>ATOM
   1 C1             0.0059     1.7219    -0.7350 C.ar    
   2 C2            -0.0000     0.3510    -0.9887 C.ar    
   3 C3             1.1940    -0.3569    -1.0275 C.ar    
   4 C4             2.3911     0.2921    -0.8154 C.ar    
   5 C5             2.4052     1.6678    -0.5606 C.ar    
   6 C6             1.2024     2.3804    -0.5217 C.ar    
   7 O7             4.8165     0.2876    -0.1647 O.3     
   8 C8             4.8286     1.6534    -0.2294 C.2     
   9 C9             3.6817     2.3627    -0.3335 C.2     
  10 C10            5.9902    -0.3362     0.3667 C.3     
  11 C11            6.8112     0.5114     1.3471 C.3     
  12 N12            7.0912     1.8030     0.7131 N.pl3   
  13 C13            6.1421     2.3223    -0.1806 C.2     
  14 N14           -1.2157    -0.3153    -1.2049 N.pl3   
  15 C15           -2.3245    -0.2452    -0.4242 C.2     
  16 C16           -1.5102    -1.1551    -2.2473 C.2     
  17 C17           -2.7783    -1.5716    -2.0665 C.2     
  18 N18           -3.2506    -1.0017    -0.9481 N.2     
  19 C19           -3.5368    -2.5117    -2.9676 C.3     
  20 C20           -1.0844     3.8141    -0.4375 C.3     
  21 O21           -1.1649     2.4122    -0.7030 O.3     
  22 C22            5.9352    -1.8441     0.6173 C.3     
  23 C23            6.7572    -1.2914    -0.5490 C.3     
  24 C24            8.3027     2.5638     1.0117 C.3     
  25 C25            8.8261     3.1915    -0.2852 C.3     
  26 N26            7.7235     3.8562    -0.9841 N.pl3   
  27 N27            6.4300     3.3232    -0.9503 N.2     
  28 C28            7.9841     3.6506     2.0059 C.ar    
  29 C29            8.9859     4.4904     2.4558 C.ar    
  30 C30            6.6893     3.8106     2.4631 C.ar    
  31 C31            6.3958     4.8074     3.3741 C.ar    
  32 C32            7.3993     5.6458     3.8294 C.ar    
  33 C33            8.6948     5.4876     3.3672 C.ar    
  34 C34            9.3647     1.6286     1.5935 C.3     
  35 C35            9.7320     0.5658     0.5560 C.3     
  36 S36           10.8782    -0.6302     1.2951 S.o2    
  37 C37           11.1703    -1.7712    -0.0845 C.3     
  38 O38           12.0962     0.0368     1.5966 O.2     
  39 O39           10.1976    -1.3317     2.3265 O.2     
  40 F40            7.1135     6.6206     4.7200 F       
  41 H41            1.1845    -1.4188    -1.2240 H       
  42 H42            3.3182    -0.2611    -0.8454 H       
  43 H43            1.2084     3.4424    -0.3254 H       
  44 H44            3.7030     3.4393    -0.2498 H       
  45 H45            6.2426     0.6673     2.2638 H       
  46 H46            7.7481     0.0037     1.5767 H       
  47 H47           -2.4236     0.3383     0.4792 H       
  48 H48           -0.8520    -1.4298    -3.0582 H       
  49 H49           -3.3788    -3.5384    -2.6372 H       
  50 H50           -4.6002    -2.2762    -2.9259 H       
  51 H51           -3.1799    -2.4006    -3.9915 H       
  52 H52           -2.0867     4.2425    -0.4401 H       
  53 H53           -0.6237     3.9733     0.5374 H       
  54 H54           -0.4814     4.2956    -1.2073 H       
  55 H55            6.4801    -2.2314     1.4781 H       
  56 H56            5.0057    -2.3605     0.3777 H       
  57 H57            6.3686    -1.4443    -1.5558 H       
  58 H58            7.8430    -1.3152    -0.4553 H       
  59 H59            9.5997     3.9221    -0.0490 H       
  60 H60            9.2439     2.4128    -0.9232 H       
  61 H61            7.8920     4.6751    -1.4760 H       
  62 H62            9.9963     4.3668     2.0952 H       
  63 H63            5.9067     3.1565     2.1078 H       
  64 H64            5.3840     4.9327     3.7306 H       
  65 H65            9.4784     6.1408     3.7219 H       
  66 H66           10.2528     2.2046     1.8536 H       
  67 H67            8.9716     1.1436     2.4870 H       
  68 H68            8.8292     0.0497     0.2293 H       
  69 H69           10.2076     1.0434    -0.3007 H       
  70 H70           11.6037    -1.2249    -0.9223 H       
  71 H71           11.8576    -2.5557     0.2322 H       
  72 H72           10.2253    -2.2185    -0.3924 H       
@<TRIPOS>BOND
   1    1    2 ar
   2    1    6 ar
   3    1   21 1
   4    2    3 ar
   5    2   14 1
   6    3    4 ar
   7    3   41 1
   8    4    5 ar
   9    4   42 1
  10    5    6 ar
  11    5    9 1
  12    6   43 1
  13    7    8 1
  14    7   10 1
  15    8    9 2
  16    8   13 1
  17    9   44 1
  18   10   11 1
  19   10   22 1
  20   10   23 1
  21   11   12 1
  22   11   45 1
  23   11   46 1
  24   12   13 1
  25   12   24 1
  26   13   27 2
  27   14   15 1
  28   14   16 1
  29   15   18 2
  30   15   47 1
  31   16   17 2
  32   16   48 1
  33   17   18 1
  34   17   19 1
  35   19   49 1
  36   19   50 1
  37   19   51 1
  38   20   21 1
  39   20   52 1
  40   20   53 1
  41   20   54 1
  42   22   23 1
  43   22   55 1
  44   22   56 1
  45   23   57 1
  46   23   58 1
  47   24   25 1
  48   24   28 1
  49   24   34 1
  50   25   26 1
  51   25   59 1
  52   25   60 1
  53   26   27 1
  54   26   61 1
  55   28   29 ar
  56   28   30 ar
  57   29   33 ar
  58   29   62 1
  59   30   31 ar
  60   30   63 1
  61   31   32 ar
  62   31   64 1
  63   32   33 ar
  64   32   40 1
  65   33   65 1
  66   34   35 1
  67   34   66 1
  68   34   67 1
  69   35   36 1
  70   35   68 1
  71   35   69 1
  72   36   37 1
  73   36   38 2
  74   36   39 2
  75   37   70 1
  76   37   71 1
  77   37   72 1

#	End of record

