#	Name: ASD01901124
#	Creating user name:	WinNT
#	Creation time:	15. 06. 2019 19:53

#	Modifying user name:	WinNT
#	Modification time:	15. 06. 2019 19:53

#	Program:	/corina/corina34_cracker 3.40 0067  02.08.2006

@<TRIPOS>MOLECULE
ASD01901124
  76   81    0    0    0
SMALL
NO_CHARGES


@<TRIPOS>ATOM
   1 C1             0.1843     0.8259    -0.4020 C.ar    
   2 C2             0.3613    -0.5276    -0.4326 C.ar    
   3 C3             1.6480    -1.0740    -0.5093 C.ar    
   4 C4             2.7659    -0.2378    -0.5471 C.ar    
   5 C5             2.5907     1.1312    -0.5095 C.ar    
   6 C6             1.2921     1.6731    -0.4474 C.ar    
   7 N7             3.6714     2.0074    -0.5255 N.pl3   
   8 C8             3.4878     3.3460    -1.0982 C.3     
   9 N9             2.2160     3.9174    -0.6544 N.am    
  10 C10            1.1426     3.1368    -0.4224 C.2     
  11 C11            2.1127     5.3013    -0.4667 C.ar    
  12 C12            1.4633     6.0840    -1.4122 C.ar    
  13 C13            1.3614     7.4484    -1.2262 C.ar    
  14 C14            1.9080     8.0374    -0.0954 C.ar    
  15 C15            2.5573     7.2563     0.8494 C.ar    
  16 C16            2.6546     5.8908     0.6678 C.ar    
  17 O17            0.0579     3.6382    -0.1944 O.2     
  18 O18            1.8077     9.3811     0.0868 O.3     
  19 C19            4.6381     4.2505    -0.6458 C.3     
  20 C20            3.4987     3.2478    -2.6263 C.3     
  21 C21            3.3773     4.6520    -3.2227 C.3     
  22 N22            4.4977     5.4808    -2.7596 N.3     
  23 C23            4.4835     5.6264    -1.2985 C.3     
  24 C24            4.4897     6.7931    -3.4196 C.3     
  25 C25            5.5980     7.6452    -2.8569 C.ar    
  26 C26            2.3932     9.9204     1.2736 C.3     
  27 C27            6.8852     7.5141    -3.3442 C.ar    
  28 C28            7.9034     8.2941    -2.8294 C.ar    
  29 C29            7.6350     9.2079    -1.8251 C.ar    
  30 C30            6.3441     9.3397    -1.3367 C.ar    
  31 C31            5.3256     8.5608    -1.8580 C.ar    
  32 F32            8.6298     9.9704    -1.3210 F       
  33 F33            6.0797    10.2307    -0.3561 F       
  34 C34            1.8236    -2.5387    -0.5500 C.2     
  35 O35            2.9994    -3.1925    -0.6230 O.3     
  36 C36            2.7737    -4.5156    -0.6405 C.2     
  37 C37            1.4437    -4.7281    -0.5786 C.2     
  38 C38            0.8263    -3.4642    -0.5143 C.2     
  39 C39            3.8316    -5.5862    -0.7174 C.3     
  40 N40            4.1057    -5.9034    -2.1253 N.3     
  41 C41            4.7166    -4.7584    -2.8137 C.3     
  42 C42            4.9513    -7.0991    -2.2406 C.3     
  43 H43           -0.8116     1.2402    -0.3473 H       
  44 H44           -0.4975    -1.1814    -0.3970 H       
  45 H45            3.7590    -0.6584    -0.6048 H       
  46 H46            4.5305     1.7385    -0.1643 H       
  47 H47            1.0383     5.6256    -2.2929 H       
  48 H48            0.8563     8.0573    -1.9615 H       
  49 H49            2.9832     7.7156     1.7291 H       
  50 H50            3.1563     5.2822     1.4056 H       
  51 H51            4.6128     4.3570     0.4386 H       
  52 H52            5.5883     3.8093    -0.9471 H       
  53 H53            4.4327     2.7921    -2.9552 H       
  54 H54            2.6586     2.6376    -2.9579 H       
  55 H55            3.3986     4.5876    -4.3106 H       
  56 H56            2.4369     5.1018    -2.9041 H       
  57 H57            3.5387     6.0720    -0.9871 H       
  58 H58            5.3075     6.2696    -0.9896 H       
  59 H59            4.6406     6.6619    -4.4911 H       
  60 H60            3.5312     7.2819    -3.2449 H       
  61 H61            2.2424    10.9997     1.2950 H       
  62 H62            1.9227     9.4704     2.1477 H       
  63 H63            3.4612     9.7025     1.2831 H       
  64 H64            7.0953     6.8012    -4.1279 H       
  65 H65            8.9086     8.1903    -3.2105 H       
  66 H66            4.3189     8.6653    -1.4812 H       
  67 H67            0.9461    -5.6866    -0.5746 H       
  68 H68           -0.2337    -3.2672    -0.4514 H       
  69 H69            4.7447    -5.2296    -0.2409 H       
  70 H70            3.4802    -6.4817    -0.2050 H       
  71 H71            5.6555    -4.4991    -2.3245 H       
  72 H72            4.9091    -5.0203    -3.8540 H       
  73 H73            4.0383    -3.9060    -2.7731 H       
  74 H74            4.4437    -7.9485    -1.7834 H       
  75 H75            5.1388    -7.3114    -3.2931 H       
  76 H76            5.8987    -6.9246    -1.7307 H       
@<TRIPOS>BOND
   1    1    2 ar
   2    1    6 ar
   3    1   43 1
   4    2    3 ar
   5    2   44 1
   6    3    4 ar
   7    3   34 1
   8    4    5 ar
   9    4   45 1
  10    5    7 1
  11    5    6 ar
  12    6   10 1
  13    7    8 1
  14    7   46 1
  15    8    9 1
  16    8   20 1
  17    8   19 1
  18    9   10 am
  19    9   11 1
  20   10   17 2
  21   11   12 ar
  22   11   16 ar
  23   12   13 ar
  24   12   47 1
  25   13   14 ar
  26   13   48 1
  27   14   15 ar
  28   14   18 1
  29   15   16 ar
  30   15   49 1
  31   16   50 1
  32   18   26 1
  33   19   23 1
  34   19   51 1
  35   19   52 1
  36   20   21 1
  37   20   53 1
  38   20   54 1
  39   21   22 1
  40   21   55 1
  41   21   56 1
  42   22   23 1
  43   22   24 1
  44   23   57 1
  45   23   58 1
  46   24   25 1
  47   24   59 1
  48   24   60 1
  49   25   27 ar
  50   25   31 ar
  51   26   61 1
  52   26   62 1
  53   26   63 1
  54   27   28 ar
  55   27   64 1
  56   28   29 ar
  57   28   65 1
  58   29   30 ar
  59   29   32 1
  60   30   31 ar
  61   30   33 1
  62   31   66 1
  63   34   35 1
  64   34   38 2
  65   35   36 1
  66   36   37 2
  67   36   39 1
  68   37   38 1
  69   37   67 1
  70   38   68 1
  71   39   40 1
  72   39   69 1
  73   39   70 1
  74   40   41 1
  75   40   42 1
  76   41   71 1
  77   41   72 1
  78   41   73 1
  79   42   74 1
  80   42   75 1
  81   42   76 1

#	End of record

