#	Name: ASD08830005
#	Creating user name:	WinNT
#	Creation time:	15. 06. 2019 21:19

#	Modifying user name:	WinNT
#	Modification time:	15. 06. 2019 21:19

#	Program:	/corina/corina34_cracker 3.40 0067  02.08.2006

@<TRIPOS>MOLECULE
ASD08830005
  51   52    0    0    0
SMALL
NO_CHARGES


@<TRIPOS>ATOM
   1 C1            -0.0173     1.4248     0.0099 C.3     
   2 C2             0.2018    -4.1693    -0.2746 C.3     
   3 O3             0.1104    -2.7497    -0.1390 O.3     
   4 C4             0.6609    -1.9995    -1.1275 C.ar    
   5 C5             0.6062    -0.6075    -1.0565 C.ar    
   6 O6             0.0021    -0.0041     0.0020 O.3     
   7 C7             1.2820    -2.6204    -2.2039 C.ar    
   8 C8             1.8425    -1.8651    -3.2093 C.ar    
   9 C9             1.7872    -0.4674    -3.1480 C.ar    
  10 C10            1.1655     0.1576    -2.0599 C.ar    
  11 C11            2.3847     0.3409    -4.2188 C.2     
  12 C12            3.0586    -0.3339    -5.3856 C.3     
  13 C13            3.5919     0.7274    -6.3501 C.3     
  14 N14            4.2488     0.0696    -7.4875 N.3     
  15 C15            4.5630     1.0380    -8.5457 C.3     
  16 C16            3.4279    -1.0333    -8.0035 C.3     
  17 C17            4.2040    -1.7847    -9.0875 C.3     
  18 C18            4.5593    -0.8156   -10.2185 C.3     
  19 C19            5.3729     0.3484    -9.6460 C.3     
  20 O20            2.3357     1.5516    -4.1640 O.2     
  21 N21            5.3547    -1.5175   -11.2347 N.3     
  22 C22            5.6136    -0.6506   -12.3920 C.3     
  23 C23            6.6105    -2.0225   -10.6639 C.3     
  24 H24            1.0053     1.8021     0.0021 H       
  25 H25           -0.5445     1.7859    -0.8732 H       
  26 H26           -0.5275     1.7763     0.9067 H       
  27 H27           -0.2992    -4.4798    -1.1914 H       
  28 H28            1.2506    -4.4636    -0.3161 H       
  29 H29           -0.2761    -4.6475     0.5805 H       
  30 H30            1.3256    -3.6984    -2.2520 H       
  31 H31            2.3250    -2.3505    -4.0447 H       
  32 H32            1.1199     1.2354    -2.0083 H       
  33 H33            3.8858    -0.9447    -5.0239 H       
  34 H34            2.3389    -0.9674    -5.9042 H       
  35 H35            2.7647     1.3381    -6.7118 H       
  36 H36            4.3116     1.3608    -5.8315 H       
  37 H37            3.6367     1.4285    -8.9672 H       
  38 H38            5.1452     1.8583    -8.1262 H       
  39 H39            3.1858    -1.7172    -7.1900 H       
  40 H40            2.5070    -0.6330    -8.4275 H       
  41 H41            5.1183    -2.1970    -8.6609 H       
  42 H42            3.5884    -2.5935    -9.4813 H       
  43 H43            3.6445    -0.4328   -10.6711 H       
  44 H44            5.5925     1.0635   -10.4387 H       
  45 H45            6.3056    -0.0304    -9.2282 H       
  46 H46            6.1624     0.2337   -12.0680 H       
  47 H47            6.2041    -1.1949   -13.1289 H       
  48 H48            4.6663    -0.3472   -12.8378 H       
  49 H49            6.3880    -2.7166    -9.8534 H       
  50 H50            7.1799    -2.5378   -11.4374 H       
  51 H51            7.1954    -1.1880   -10.2773 H       
@<TRIPOS>BOND
   1    1    6 1
   2    1   24 1
   3    1   25 1
   4    1   26 1
   5    2    3 1
   6    2   27 1
   7    2   28 1
   8    2   29 1
   9    3    4 1
  10    4    5 ar
  11    4    7 ar
  12    5    6 1
  13    5   10 ar
  14    7    8 ar
  15    7   30 1
  16    8    9 ar
  17    8   31 1
  18    9   10 ar
  19    9   11 1
  20   10   32 1
  21   11   12 1
  22   11   20 2
  23   12   13 1
  24   12   33 1
  25   12   34 1
  26   13   14 1
  27   13   35 1
  28   13   36 1
  29   14   15 1
  30   14   16 1
  31   15   19 1
  32   15   37 1
  33   15   38 1
  34   16   17 1
  35   16   39 1
  36   16   40 1
  37   17   18 1
  38   17   41 1
  39   17   42 1
  40   18   19 1
  41   18   21 1
  42   18   43 1
  43   19   44 1
  44   19   45 1
  45   21   22 1
  46   21   23 1
  47   22   46 1
  48   22   47 1
  49   22   48 1
  50   23   49 1
  51   23   50 1
  52   23   51 1

#	End of record

