#	Name: ASD01890453
#	Creating user name:	WinNT
#	Creation time:	15. 06. 2019 19:51

#	Modifying user name:	WinNT
#	Modification time:	15. 06. 2019 19:51

#	Program:	/corina/corina34_cracker 3.40 0067  02.08.2006

@<TRIPOS>MOLECULE
ASD01890453
  53   54    0    0    0
SMALL
NO_CHARGES


@<TRIPOS>ATOM
   1 C1             0.9621     0.1554    -0.9050 C.2     
   2 C2            -0.4094     0.0628    -0.2874 C.3     
   3 C3            -1.3625    -0.5637    -1.2724 C.2     
   4 O4             1.2099    -0.4514    -1.9200 O.2     
   5 O5             1.9069     0.9165    -0.3306 O.3     
   6 O6            -0.9345    -1.1954    -2.2092 O.2     
   7 O7            -2.6870    -0.4199    -1.1089 O.3     
   8 C8            -0.3428    -0.7978     0.9758 C.3     
   9 C9            -1.7543    -0.9987     1.5311 C.3     
  10 C10           -2.2941     0.3206     2.0202 C.2     
  11 O11           -1.5801     1.3010     2.0326 O.2     
  12 C12           -3.6848     0.4191     2.4819 C.ar    
  13 C13           -4.2221     1.6638     2.8326 C.ar    
  14 C14           -5.5211     1.7504     3.2630 C.ar    
  15 C15           -6.3047     0.6048     3.3517 C.ar    
  16 C16           -5.7758    -0.6339     3.0047 C.ar    
  17 C17           -4.4798    -0.7305     2.5675 C.ar    
  18 O18           -7.5891     0.6957     3.7787 O.3     
  19 C19           -8.3379    -0.5195     3.8462 C.3     
  20 O20           -7.9146    -1.2774     4.9813 O.3     
  21 C21           -8.3891    -0.7689     6.2296 C.3     
  22 C22            0.2602    -2.1374     0.6399 C.ar    
  23 C23            1.4248    -2.5465     1.2623 C.ar    
  24 C24            1.9783    -3.7750     0.9546 C.ar    
  25 C25            1.3667    -4.5953     0.0234 C.ar    
  26 C26            0.2012    -4.1853    -0.5992 C.ar    
  27 C27           -0.3545    -2.9590    -0.2865 C.ar    
  28 Cl28           2.0616    -6.1383    -0.3640 Cl      
  29 C29            3.2296     0.8887    -0.9288 C.3     
  30 C30           -3.5453    -1.0503    -2.0959 C.3     
  31 H31           -0.7594     1.0620    -0.0283 H       
  32 H32            0.2741    -0.2988     1.7233 H       
  33 H33           -2.4019    -1.3874     0.7452 H       
  34 H34           -1.7217    -1.7072     2.3587 H       
  35 H35           -3.6144     2.5540     2.7644 H       
  36 H36           -5.9364     2.7098     3.5341 H       
  37 H37           -6.3883    -1.5205     3.0756 H       
  38 H38           -4.0715    -1.6922     2.2940 H       
  39 H39           -9.3990    -0.2878     3.9392 H       
  40 H40           -8.1710    -1.1000     2.9389 H       
  41 H41           -8.0256     0.2492     6.3689 H       
  42 H42           -9.4791    -0.7689     6.2311 H       
  43 H43           -8.0246    -1.3990     7.0408 H       
  44 H44            1.9024    -1.9059     1.9890 H       
  45 H45            2.8883    -4.0944     1.4407 H       
  46 H46           -0.2767    -4.8252    -1.3261 H       
  47 H47           -1.2666    -2.6407    -0.7692 H       
  48 H48            3.1827     1.3076    -1.9339 H       
  49 H49            3.9157     1.4785    -0.3210 H       
  50 H50            3.5834    -0.1410    -0.9804 H       
  51 H51           -4.5887    -0.8572    -1.8465 H       
  52 H52           -3.3259    -0.6416    -3.0823 H       
  53 H53           -3.3657    -2.1254    -2.0999 H       
@<TRIPOS>BOND
   1    1    2 1
   2    1    4 2
   3    1    5 1
   4    2    3 1
   5    2    8 1
   6    2   31 1
   7    3    6 2
   8    3    7 1
   9    5   29 1
  10    7   30 1
  11    8    9 1
  12    8   22 1
  13    8   32 1
  14    9   10 1
  15    9   33 1
  16    9   34 1
  17   10   11 2
  18   10   12 1
  19   12   13 ar
  20   12   17 ar
  21   13   14 ar
  22   13   35 1
  23   14   15 ar
  24   14   36 1
  25   15   16 ar
  26   15   18 1
  27   16   17 ar
  28   16   37 1
  29   17   38 1
  30   18   19 1
  31   19   20 1
  32   19   39 1
  33   19   40 1
  34   20   21 1
  35   21   41 1
  36   21   42 1
  37   21   43 1
  38   22   23 ar
  39   22   27 ar
  40   23   24 ar
  41   23   44 1
  42   24   25 ar
  43   24   45 1
  44   25   26 ar
  45   25   28 1
  46   26   27 ar
  47   26   46 1
  48   27   47 1
  49   29   48 1
  50   29   49 1
  51   29   50 1
  52   30   51 1
  53   30   52 1
  54   30   53 1

#	End of record

