#	Name: ASD01420446
#	Creating user name:	WinNT
#	Creation time:	15. 06. 2019 19:20

#	Modifying user name:	WinNT
#	Modification time:	15. 06. 2019 19:20

#	Program:	/corina/corina34_cracker 3.40 0067  02.08.2006

@<TRIPOS>MOLECULE
ASD01420446
  24   26    0    0    0
SMALL
NO_CHARGES


@<TRIPOS>ATOM
   1 C1            -0.0169     1.3941     0.0097 C.ar    
   2 C2             0.0021    -0.0041     0.0020 C.ar    
   3 C3             1.2358    -0.6787    -0.0134 C.ar    
   4 C4             2.4198     0.0441    -0.0201 C.ar    
   5 C5             2.3826     1.4229    -0.0117 C.ar    
   6 C6             1.1683     2.0937     0.0021 C.ar    
   7 N7            -0.9709    -0.9481     0.0055 N.2     
   8 C8            -0.4272    -2.1412    -0.0065 C.2     
   9 N9             0.9372    -2.0283    -0.0185 N.pl3   
  10 C10           -1.1744    -3.4156    -0.0063 C.2     
  11 C11           -2.5813    -3.5539     0.0063 C.2     
  12 C12           -2.8668    -4.8785     0.0018 C.2     
  13 N13           -1.6890    -5.5587    -0.0130 N.pl3   
  14 N14           -0.6460    -4.6241    -0.0236 N.2     
  15 N15           -3.5160    -2.5057     0.0212 N.pl3   
  16 H16           -0.9584     1.9232     0.0171 H       
  17 H17            3.3686    -0.4716    -0.0316 H       
  18 H18            3.3053     1.9842    -0.0170 H       
  19 H19            1.1529     3.1736     0.0083 H       
  20 H20            1.5752    -2.7589    -0.0290 H       
  21 H21           -3.8541    -5.3164     0.0094 H       
  22 H22           -1.5889    -6.5236    -0.0187 H       
  23 H23           -3.2118    -1.5846     0.0236 H       
  24 H24           -4.4658    -2.7028     0.0291 H       
@<TRIPOS>BOND
   1    1    2 ar
   2    1    6 ar
   3    1   16 1
   4    2    3 ar
   5    2    7 1
   6    3    4 ar
   7    3    9 1
   8    4    5 ar
   9    4   17 1
  10    5    6 ar
  11    5   18 1
  12    6   19 1
  13    7    8 2
  14    8    9 1
  15    8   10 1
  16    9   20 1
  17   10   11 1
  18   10   14 2
  19   11   12 2
  20   11   15 1
  21   12   13 1
  22   12   21 1
  23   13   14 1
  24   13   22 1
  25   15   23 1
  26   15   24 1

#	End of record

