#	Name: ASD04560169
#	Creating user name:	WinNT
#	Creation time:	15. 06. 2019 20:49

#	Modifying user name:	WinNT
#	Modification time:	15. 06. 2019 20:49

#	Program:	/corina/corina34_cracker 3.40 0067  02.08.2006

@<TRIPOS>MOLECULE
ASD04560169
  43   45    0    0    0
SMALL
NO_CHARGES


@<TRIPOS>ATOM
   1 C1            -0.1120     1.2015     0.2594 C.ar    
   2 N2            -0.2049    -0.1112     0.2332 N.ar    
   3 C3             0.8707    -0.8864     0.2900 C.ar    
   4 C4             2.1479    -0.3340     0.3802 C.ar    
   5 C5             2.2903     1.0266     0.4103 C.ar    
   6 C6             1.1356     1.8224     0.3487 C.ar    
   7 C7             1.2385     3.2933     0.3775 C.2     
   8 O8             2.3295     3.8250     0.4551 O.2     
   9 N9             0.1236     4.0481     0.3179 N.am    
  10 C10            0.2104     5.4373     0.4646 C.ar    
  11 C11           -0.6469     6.2665    -0.2467 C.ar    
  12 C12            1.2336     7.3592     1.4697 C.ar    
  13 C13            1.1500     5.9882     1.3261 C.ar    
  14 S14            0.6824    -2.6378     0.2515 S.3     
  15 C15           -0.5599     7.6371    -0.1001 C.ar    
  16 C16            0.3813     8.1845     0.7555 C.ar    
  17 F17            0.4647     9.5254     0.8975 F       
  18 C18           -1.1198    -2.7577     0.1349 C.3     
  19 C19           -1.5248    -4.2085     0.0872 C.ar    
  20 C20           -1.6892    -4.9192     1.2586 C.ar    
  21 C21           -2.0604    -6.2512     1.2162 C.ar    
  22 C22           -2.2689    -6.8784     0.0003 C.ar    
  23 C23           -2.1077    -6.1775    -1.1769 C.ar    
  24 C24           -1.7394    -4.8334    -1.1400 C.ar    
  25 B25           -1.5544    -4.0301    -2.4762 Du      
  26 O26           -2.3748    -4.3202    -3.5983 O.3     
  27 O27           -0.5668    -3.0135    -2.5626 O.3     
  28 H28           -1.0073     1.8031     0.2069 H       
  29 H29            3.0165    -0.9741     0.4262 H       
  30 H30            3.2689     1.4780     0.4802 H       
  31 H31           -0.7390     3.6287     0.1732 H       
  32 H32           -1.3809     5.8400    -0.9143 H       
  33 H33            1.9642     7.7880     2.1396 H       
  34 H34            1.8146     5.3449     1.8835 H       
  35 H35           -1.2262     8.2823    -0.6533 H       
  36 H36           -1.5726    -2.2825     1.0051 H       
  37 H37           -1.4595    -2.2557    -0.7710 H       
  38 H38           -1.5275    -4.4347     2.2102 H       
  39 H39           -2.1877    -6.8038     2.1353 H       
  40 H40           -2.5579    -7.9187    -0.0271 H       
  41 H41           -2.2703    -6.6680    -2.1253 H       
  42 H42           -2.1872    -3.7745    -4.3742 H       
  43 H43           -0.5278    -2.5752    -3.4236 H       
@<TRIPOS>BOND
   1    1    2 ar
   2    1    6 ar
   3    1   28 1
   4    2    3 ar
   5    3    4 ar
   6    3   14 1
   7    4    5 ar
   8    4   29 1
   9    5    6 ar
  10    5   30 1
  11    6    7 1
  12    7    8 2
  13    7    9 am
  14    9   10 1
  15    9   31 1
  16   10   11 ar
  17   10   13 ar
  18   11   15 ar
  19   11   32 1
  20   12   13 ar
  21   12   16 ar
  22   12   33 1
  23   13   34 1
  24   14   18 1
  25   15   16 ar
  26   15   35 1
  27   16   17 1
  28   18   19 1
  29   18   36 1
  30   18   37 1
  31   19   20 ar
  32   19   24 ar
  33   20   21 ar
  34   20   38 1
  35   21   22 ar
  36   21   39 1
  37   22   23 ar
  38   22   40 1
  39   23   24 ar
  40   23   41 1
  41   24   25 1
  42   25   26 1
  43   25   27 1
  44   26   42 1
  45   27   43 1

#	End of record

