#	Name: ASD01881493
#	Creating user name:	WinNT
#	Creation time:	15. 06. 2019 19:42

#	Modifying user name:	WinNT
#	Modification time:	15. 06. 2019 19:42

#	Program:	/corina/corina34_cracker 3.40 0067  02.08.2006

@<TRIPOS>MOLECULE
ASD01881493
  27   27    0    0    0
SMALL
NO_CHARGES


@<TRIPOS>ATOM
   1 C1            -0.0188     1.5384     0.0105 C.3     
   2 C2             0.0021    -0.0041     0.0020 C.3     
   3 C3             1.3887    -0.3684     0.5883 C.3     
   4 C4             2.3117     0.7188    -0.0162 C.3     
   5 C5             1.4496     1.9980    -0.0011 C.3     
   6 C6             0.5470     2.2758    -1.2048 C.3     
   7 C7            -1.0992    -0.5513     0.8732 C.2     
   8 O8            -1.5909    -1.7786     0.6416 O.3     
   9 O9            -1.5395     0.1148     1.7800 O.2     
  10 C10            0.1001     3.6981    -1.4247 C.2     
  11 O11            0.5580     4.3899    -2.4800 O.3     
  12 O12           -0.6703     4.2158    -0.6512 O.2     
  13 N13           -0.1256    -0.5124    -1.3703 N.3     
  14 H14           -0.7606     2.0268     0.6425 H       
  15 H15            1.3771    -0.3040     1.6763 H       
  16 H16            1.6970    -1.3617     0.2623 H       
  17 H17            3.2006     0.8505     0.6007 H       
  18 H18            2.5899     0.4583    -1.0373 H       
  19 H19            1.7896     2.8249     0.6224 H       
  20 H20            0.7221     1.6935    -2.1094 H       
  21 H21           -2.2965    -2.0864     1.2268 H       
  22 H22            0.2430     5.2988    -2.5792 H       
  23 H23           -0.1128    -1.5212    -1.3848 H       
  24 H24           -0.9593    -0.1550    -1.8122 H       
  25 O25            8.2006    11.2657     6.7862 O.3     
  26 H26            8.2137    10.2988     6.7809 H       
  27 H27            9.0786    11.6710     6.7800 H       
@<TRIPOS>BOND
   1    1    2 1
   2    1    5 1
   3    1    6 1
   4    1   14 1
   5    2    3 1
   6    2    7 1
   7    2   13 1
   8    3    4 1
   9    3   15 1
  10    3   16 1
  11    4    5 1
  12    4   17 1
  13    4   18 1
  14    5    6 1
  15    5   19 1
  16    6   10 1
  17    6   20 1
  18    7    8 1
  19    7    9 2
  20    8   21 1
  21   10   11 1
  22   10   12 2
  23   11   22 1
  24   13   23 1
  25   13   24 1
  26   25   26 1
  27   25   27 1

#	End of record

