#	Name: ASD01200487
#	Creating user name:	WinNT
#	Creation time:	15. 06. 2019 19:09

#	Modifying user name:	WinNT
#	Modification time:	15. 06. 2019 19:09

#	Program:	/corina/corina34_cracker 3.40 0067  02.08.2006

@<TRIPOS>MOLECULE
ASD01200487
  22   23    0    0    0
SMALL
NO_CHARGES


@<TRIPOS>ATOM
   1 N1             2.2305     1.3385     0.5650 N.ar    
   2 C2             2.2416     0.0206     0.5641 C.ar    
   3 C3             1.2056    -0.6960    -0.0211 C.ar    
   4 C4             0.1515    -0.0015    -0.6090 C.ar    
   5 C5             0.1812     1.3834    -0.5849 C.ar    
   6 C6             1.2472     2.0255     0.0168 C.ar    
   7 N7             1.2212    -2.0949    -0.0204 N.am    
   8 C8             0.0667    -2.7816     0.0891 C.2     
   9 O9            -0.9775    -2.1888     0.2854 O.2     
  10 C10           -1.0543    -5.0107     0.0698 C.2     
  11 C11            0.0691    -4.2470    -0.0286 C.2     
  12 C12            1.2640    -5.0266    -0.2614 C.2     
  13 C13            1.0282    -6.3316    -0.3328 C.2     
  14 S14           -0.6815    -6.6634    -0.1162 S.3     
  15 Cl15           2.2430    -7.5418    -0.6035 Cl      
  16 Cl16          -2.6489    -4.3860     0.3537 Cl      
  17 H17            3.0646    -0.5074     1.0228 H       
  18 H18           -0.6687    -0.5294    -1.0726 H       
  19 H19           -0.6191     1.9548    -1.0314 H       
  20 H20            1.2751     3.1049     0.0387 H       
  21 H21            2.0629    -2.5706    -0.0987 H       
  22 H22            2.2473    -4.5924    -0.3669 H       
@<TRIPOS>BOND
   1    1    2 ar
   2    1    6 ar
   3    2    3 ar
   4    2   17 1
   5    3    4 ar
   6    3    7 1
   7    4    5 ar
   8    4   18 1
   9    5    6 ar
  10    5   19 1
  11    6   20 1
  12    7    8 am
  13    7   21 1
  14    8    9 2
  15    8   11 1
  16   10   11 2
  17   10   14 1
  18   10   16 1
  19   11   12 1
  20   12   13 2
  21   12   22 1
  22   13   14 1
  23   13   15 1

#	End of record

