#	Name: ASD05490226
#	Creating user name:	WinNT
#	Creation time:	15. 06. 2019 21:01

#	Modifying user name:	WinNT
#	Modification time:	15. 06. 2019 21:01

#	Program:	/corina/corina34_cracker 3.40 0067  02.08.2006

@<TRIPOS>MOLECULE
ASD05490226
  88   90    0    0    0
SMALL
NO_CHARGES


@<TRIPOS>ATOM
   1 N1            -0.0118     1.3215     0.0389 N.ar    
   2 C2             0.0085    -0.0023     0.0421 C.ar    
   3 C3             1.2091    -0.6932     0.0180 C.ar    
   4 C4             2.4039     0.0231    -0.0103 C.ar    
   5 C5             2.3422     1.4158    -0.0132 C.ar    
   6 C6             1.1040     2.0360     0.0123 C.ar    
   7 N7             3.6298    -0.6362    -0.0345 N.pl3   
   8 C8             3.6743    -2.1005    -0.0305 C.3     
   9 C9             5.1093    -2.5596    -0.0600 C.ar    
  10 C10            5.7934    -2.7660     1.1234 C.ar    
  11 C11            7.1098    -3.1871     1.0963 C.ar    
  12 C12            7.7420    -3.4021    -0.1140 C.ar    
  13 C13            7.0576    -3.1965    -1.2974 C.ar    
  14 C14            5.7399    -2.7796    -1.2703 C.ar    
  15 C15           10.5888    -5.8156    -0.4054 C.3     
  16 N16            9.2230    -5.3285    -0.1385 N.3     
  17 C17            8.3146    -5.8903    -1.1607 C.3     
  18 C18            9.0224    -7.1766    -1.6549 C.3     
  19 C19           10.5114    -6.7412    -1.6378 C.3     
  20 O20           -1.1605    -0.6906     0.0698 O.3     
  21 C21           -2.3652     0.0776     0.0942 C.3     
  22 C22           -3.5703    -0.8645     0.1233 C.3     
  23 C23           -4.8602    -0.0420     0.1494 C.3     
  24 C24           -6.0653    -0.9842     0.1786 C.3     
  25 C25            9.1774    -3.8602    -0.1435 C.3     
  26 N26            1.0305     3.4318     0.0092 N.am    
  27 O27            0.9982     5.4501    -1.1603 O.3     
  28 C28            1.0456     6.1097    -2.4529 C.3     
  29 C29           -0.1282     5.6343    -3.3114 C.3     
  30 C30            0.9530     7.6242    -2.2563 C.3     
  31 C31            2.3618     5.7658    -3.1531 C.3     
  32 C32            1.0690     4.1060    -1.1572 C.2     
  33 O33            1.1677     3.5007    -2.2056 O.2     
  34 O34            0.9546     5.4490     1.1784 O.3     
  35 C35            0.8310     6.1058     2.4675 C.3     
  36 C36            1.9777     5.6619     3.3780 C.3     
  37 C37            0.8906     7.6225     2.2749 C.3     
  38 C38           -0.5053     5.7251     3.1079 C.3     
  39 C39            0.9210     4.1035     1.1725 C.2     
  40 O40            0.7920     3.4947     2.2155 O.2     
  41 N41            3.5837     2.2213    -0.0423 N.pl3   
  42 O42            4.1219     2.4725    -1.1057 O.2     
  43 O43            4.0672     2.6328     0.9971 O.2     
  44 H44            1.2188    -1.7731     0.0215 H       
  45 H45            4.4546    -0.1260    -0.0541 H       
  46 H46            3.1911    -2.4762     0.8714 H       
  47 H47            3.1526    -2.4823    -0.9081 H       
  48 H48            5.2995    -2.5980     2.0690 H       
  49 H49            7.6445    -3.3477     2.0208 H       
  50 H50            7.5516    -3.3642    -2.2430 H       
  51 H51            5.2052    -2.6190    -2.1948 H       
  52 H52           11.2485    -4.9736    -0.6149 H       
  53 H53           10.9582    -6.3738     0.4549 H       
  54 H54            7.3493    -6.1348    -0.7174 H       
  55 H55            8.1879    -5.1869    -1.9836 H       
  56 H56            8.8501    -8.0054    -0.9683 H       
  57 H57            8.7027    -7.4349    -2.6644 H       
  58 H58           10.7636    -6.1948    -2.5466 H       
  59 H59           11.1641    -7.6051    -1.5125 H       
  60 H60           -2.3757     0.7087     0.9828 H       
  61 H61           -2.4149     0.7038    -0.7967 H       
  62 H62           -3.5597    -1.4956    -0.7654 H       
  63 H63           -3.5205    -1.4907     1.0141 H       
  64 H64           -4.8707     0.5890     1.0381 H       
  65 H65           -4.9099     0.5841    -0.7414 H       
  66 H66           -6.0155    -1.6103     1.0694 H       
  67 H67           -6.9842    -0.3982     0.1972 H       
  68 H68           -6.0547    -1.6152    -0.7101 H       
  69 H69            9.6601    -3.4848    -1.0458 H       
  70 H70            9.6990    -3.4775     0.7337 H       
  71 H71           -1.0659     5.8793    -2.8126 H       
  72 H72           -0.0927     6.1295    -4.2818 H       
  73 H73           -0.0623     4.5553    -3.4515 H       
  74 H74            1.7893     7.9630    -1.6447 H       
  75 H75            0.9886     8.1194    -3.2267 H       
  76 H76            0.0154     7.8692    -1.7575 H       
  77 H77            2.4277     4.6869    -3.2931 H       
  78 H78            2.3973     6.2610    -4.1234 H       
  79 H79            3.1980     6.1046    -2.5414 H       
  80 H80            2.9298     5.9332     2.9218 H       
  81 H81            1.8850     6.1550     4.3457 H       
  82 H82            1.9353     4.5814     3.5152 H       
  83 H83            0.0737     7.9387     1.6262 H       
  84 H84            0.7978     8.1155     3.2426 H       
  85 H85            1.8426     7.8937     1.8187 H       
  86 H86           -0.5477     4.6446     3.2451 H       
  87 H87           -0.5981     6.2182     4.0755 H       
  88 H88           -1.3222     6.0413     2.4592 H       
@<TRIPOS>BOND
   1    1    2 ar
   2    1    6 ar
   3    2    3 ar
   4    2   20 1
   5    3    4 ar
   6    3   44 1
   7    4    5 ar
   8    4    7 1
   9    5    6 ar
  10    5   41 1
  11    6   26 1
  12    7    8 1
  13    7   45 1
  14    8    9 1
  15    8   46 1
  16    8   47 1
  17    9   10 ar
  18    9   14 ar
  19   10   11 ar
  20   10   48 1
  21   11   12 ar
  22   11   49 1
  23   12   13 ar
  24   12   25 1
  25   13   14 ar
  26   13   50 1
  27   14   51 1
  28   15   16 1
  29   15   19 1
  30   15   52 1
  31   15   53 1
  32   16   17 1
  33   16   25 1
  34   17   18 1
  35   17   54 1
  36   17   55 1
  37   18   19 1
  38   18   56 1
  39   18   57 1
  40   19   58 1
  41   19   59 1
  42   20   21 1
  43   21   22 1
  44   21   60 1
  45   21   61 1
  46   22   23 1
  47   22   62 1
  48   22   63 1
  49   23   24 1
  50   23   64 1
  51   23   65 1
  52   24   66 1
  53   24   67 1
  54   24   68 1
  55   25   69 1
  56   25   70 1
  57   26   32 am
  58   26   39 am
  59   27   28 1
  60   27   32 1
  61   28   29 1
  62   28   30 1
  63   28   31 1
  64   29   71 1
  65   29   72 1
  66   29   73 1
  67   30   74 1
  68   30   75 1
  69   30   76 1
  70   31   77 1
  71   31   78 1
  72   31   79 1
  73   32   33 2
  74   34   35 1
  75   34   39 1
  76   35   36 1
  77   35   37 1
  78   35   38 1
  79   36   80 1
  80   36   81 1
  81   36   82 1
  82   37   83 1
  83   37   84 1
  84   37   85 1
  85   38   86 1
  86   38   87 1
  87   38   88 1
  88   39   40 2
  89   41   42 2
  90   41   43 2

#	End of record

