#	Name: ASD05730037
#	Creating user name:	WinNT
#	Creation time:	15. 06. 2019 21:02

#	Modifying user name:	WinNT
#	Modification time:	15. 06. 2019 21:02

#	Program:	/corina/corina34_cracker 3.40 0067  02.08.2006

@<TRIPOS>MOLECULE
ASD05730037
  80   85    0    0    0
SMALL
NO_CHARGES


@<TRIPOS>ATOM
   1 C1             0.9285    -0.6356     1.3021 C.ar    
   2 C2             0.9041   -10.8711    -0.1162 C.3     
   3 C3             0.9575    -9.3650    -0.1242 C.ar    
   4 C4             1.9984    -8.7150    -0.7616 C.ar    
   5 C5             2.0503    -7.3350    -0.7708 C.ar    
   6 C6             1.0555    -6.5998    -0.1388 C.ar    
   7 C7             0.0114    -7.2560     0.5005 C.ar    
   8 C8            -0.0375    -8.6361     0.5011 C.ar    
   9 N9             1.1053    -5.2028    -0.1459 N.pl3   
  10 C10           -0.0651    -4.4698    -0.2063 C.ar    
  11 N11            0.0011    -3.1521    -0.0945 N.ar    
  12 C12           -1.1020    -2.4141    -0.1477 C.ar    
  13 C13           -2.3433    -3.0620    -0.3255 C.ar    
  14 C14           -2.3604    -4.4600    -0.4387 C.ar    
  15 N15           -1.2145    -5.1127    -0.3798 N.ar    
  16 N16           -1.0430    -1.0462    -0.0331 N.am    
  17 C17           -2.1654    -0.3036    -0.0875 C.2     
  18 C18           -3.4687    -0.9451    -0.2706 C.2     
  19 C19           -3.5375    -2.3071    -0.3871 C.2     
  20 C20            0.1962    -0.4180     0.1424 C.ar    
  21 O21           -2.0958     0.9082     0.0166 O.2     
  22 C22           -4.7030    -0.1265    -0.3304 C.2     
  23 N23           -4.8739     1.0964     0.2124 N.2     
  24 C24            0.9347   -11.3765     1.3288 C.3     
  25 C25           -5.8648    -0.4706    -0.9473 C.2     
  26 N26           -6.7332     0.5688    -0.7562 N.am    
  27 C27           -6.0840     1.5116    -0.0386 C.2     
  28 C28            0.8189   -12.9025     1.3329 C.3     
  29 N29           -0.4359   -13.3012     0.6824 N.3     
  30 C30           -0.4678   -12.8678    -0.7203 C.3     
  31 C31           -0.3904   -11.3408    -0.7857 C.3     
  32 S32           -8.2923     0.6574    -1.3073 S.o2    
  33 C33           -6.1419    -1.7488    -1.6960 C.3     
  34 C34           -8.1327     0.6879    -3.1140 C.3     
  35 C35           -9.5230     0.7699    -3.7475 C.3     
  36 N36           -9.3937     0.7946    -5.2106 N.3     
  37 C37          -10.7029     0.6344    -5.8575 C.3     
  38 C38           -8.7318     2.0267    -5.6598 C.3     
  39 O39           -8.8849    -0.5612    -0.8795 O.2     
  40 O40           -8.7631     1.9092    -0.8271 O.2     
  41 C41            0.6950     0.4243    -0.8425 C.ar    
  42 C42            1.9173     1.0427    -0.6662 C.ar    
  43 C43            2.6441     0.8239     0.4897 C.ar    
  44 C44            2.1501    -0.0142     1.4724 C.ar    
  45 H45            0.5412    -1.2866     2.0719 H       
  46 H46            1.7613   -11.2688    -0.6595 H       
  47 H47            2.7716    -9.2872    -1.2528 H       
  48 H48            2.8639    -6.8279    -1.2682 H       
  49 H49           -0.7637    -6.6873     0.9928 H       
  50 H50           -0.8493    -9.1469     0.9977 H       
  51 H51            1.9611    -4.7477    -0.1083 H       
  52 H52           -3.2909    -4.9909    -0.5755 H       
  53 H53           -4.4899    -2.7981    -0.5228 H       
  54 H54            1.8734   -11.0816     1.7977 H       
  55 H55            0.0999   -10.9468     1.8824 H       
  56 H56           -6.5006     2.4568     0.2769 H       
  57 H57            1.6614   -13.3321     0.7909 H       
  58 H58            0.8259   -13.2645     2.3610 H       
  59 H59           -0.5811   -14.2969     0.7566 H       
  60 H60            0.3807   -13.2976    -1.2526 H       
  61 H61           -1.3953   -13.2046    -1.1834 H       
  62 H62           -1.2461   -10.9104    -0.2653 H       
  63 H63           -0.3984   -11.0202    -1.8274 H       
  64 H64           -6.6148    -2.4670    -1.0261 H       
  65 H65           -6.8067    -1.5418    -2.5346 H       
  66 H66           -5.2046    -2.1621    -2.0687 H       
  67 H67           -7.5457     1.5566    -3.4123 H       
  68 H68           -7.6333    -0.2208    -3.4500 H       
  69 H69          -10.1100    -0.0987    -3.4492 H       
  70 H70          -10.0223     1.6787    -3.4114 H       
  71 H71          -11.3615     1.4471    -5.5510 H       
  72 H72          -10.5783     0.6563    -6.9401 H       
  73 H73          -11.1402    -0.3190    -5.5613 H       
  74 H74           -7.7362     2.0853    -5.2200 H       
  75 H75           -8.6490     2.0190    -6.7467 H       
  76 H76           -9.3190     2.8898    -5.3462 H       
  77 H77            0.1280     0.5952    -1.7457 H       
  78 H78            2.3059     1.6976    -1.4320 H       
  79 H79            3.5998     1.3084     0.6251 H       
  80 H80            2.7201    -0.1831     2.3740 H       
@<TRIPOS>BOND
   1    1   20 ar
   2    1   44 ar
   3    1   45 1
   4    2    3 1
   5    2   24 1
   6    2   31 1
   7    2   46 1
   8    3    4 ar
   9    3    8 ar
  10    4    5 ar
  11    4   47 1
  12    5    6 ar
  13    5   48 1
  14    6    7 ar
  15    6    9 1
  16    7    8 ar
  17    7   49 1
  18    8   50 1
  19    9   10 1
  20    9   51 1
  21   10   11 ar
  22   10   15 ar
  23   11   12 ar
  24   12   13 ar
  25   12   16 1
  26   13   14 ar
  27   13   19 1
  28   14   15 ar
  29   14   52 1
  30   16   17 am
  31   16   20 1
  32   17   18 1
  33   17   21 2
  34   18   19 2
  35   18   22 1
  36   19   53 1
  37   20   41 ar
  38   22   23 1
  39   22   25 2
  40   23   27 2
  41   24   28 1
  42   24   54 1
  43   24   55 1
  44   25   26 1
  45   25   33 1
  46   26   27 1
  47   26   32 am
  48   27   56 1
  49   28   29 1
  50   28   57 1
  51   28   58 1
  52   29   30 1
  53   29   59 1
  54   30   31 1
  55   30   60 1
  56   30   61 1
  57   31   62 1
  58   31   63 1
  59   32   34 1
  60   32   39 2
  61   32   40 2
  62   33   64 1
  63   33   65 1
  64   33   66 1
  65   34   35 1
  66   34   67 1
  67   34   68 1
  68   35   36 1
  69   35   69 1
  70   35   70 1
  71   36   37 1
  72   36   38 1
  73   37   71 1
  74   37   72 1
  75   37   73 1
  76   38   74 1
  77   38   75 1
  78   38   76 1
  79   41   42 ar
  80   41   77 1
  81   42   43 ar
  82   42   78 1
  83   43   44 ar
  84   43   79 1
  85   44   80 1

#	End of record

