#	Name: ASD05790073
#	Creating user name:	WinNT
#	Creation time:	15. 06. 2019 21:03

#	Modifying user name:	WinNT
#	Modification time:	15. 06. 2019 21:03

#	Program:	/corina/corina34_cracker 3.40 0067  02.08.2006

@<TRIPOS>MOLECULE
ASD05790073
 103  109    0    0    0
SMALL
NO_CHARGES


@<TRIPOS>ATOM
   1 C1             2.8480     1.1929    -1.1314 C.3     
   2 C2             3.1696    -0.2687    -1.3529 C.2     
   3 C3             3.8685    -0.6610    -2.6329 C.3     
   4 C4             5.1215     0.2089    -2.7965 C.3     
   5 C5             4.7166     1.6917    -2.7194 C.3     
   6 C6             4.1266     2.0074    -1.3495 C.3     
   7 C7             5.7483    -0.0935    -4.1608 C.3     
   8 C8             4.7656     0.2508    -5.2947 C.3     
   9 C9             4.4360     1.7250    -5.1768 C.3     
  10 C10            3.7140     1.9449    -3.8217 C.3     
  11 C11            3.3923     2.2637    -6.1635 C.3     
  12 C12            2.8305     3.5006    -5.4661 C.2     
  13 C13            3.1748     3.3618    -3.9769 C.3     
  14 C14            4.0774     2.6414    -7.4637 C.3     
  15 C15            3.1553     3.1750    -8.5049 C.3     
  16 C16            2.7725     4.6272    -8.3572 C.3     
  17 C17            1.6829     4.8233    -7.3178 C.3     
  18 C18            2.1517     4.4544    -5.9567 C.2     
  19 C19            2.2645     5.1644    -9.7230 C.3     
  20 C20            3.2440     6.3007   -10.0429 C.3     
  21 C21            4.4909     5.8329    -9.2412 C.3     
  22 O22            3.9378     5.4120    -8.0016 O.3     
  23 N23            3.6594     6.3906   -11.4385 N.3     
  24 C24            4.6629     7.4610   -11.5780 C.3     
  25 C25            5.8885     7.2230   -10.7008 C.3     
  26 C26            5.4787     6.9798    -9.2365 C.3     
  27 C27            5.9491     2.5670    -2.9549 C.3     
  28 C28            1.7177     5.4484    -4.9104 C.3     
  29 C29            6.8021     8.4484   -10.7703 C.3     
  30 C30            2.3366     4.0729   -10.7927 C.3     
  31 C31            2.5065     6.6323   -12.3163 C.3     
  32 O32            2.8756    -1.0999    -0.5276 O.2     
  33 C33            3.0001     6.9874   -13.7203 C.3     
  34 N34            1.8504     7.2284   -14.5957 N.am    
  35 C35            1.3368     8.4694   -14.7072 C.2     
  36 C36            0.1541     8.7174   -15.6077 C.3     
  37 O37            1.8264     9.3867   -14.0828 O.2     
  38 C38           -0.2273    10.1980   -15.5526 C.3     
  39 C39           -1.4100    10.4460   -16.4531 C.ar    
  40 C40           -2.6942    10.3346   -15.9538 C.ar    
  41 C41           -3.7791    10.5620   -16.7798 C.ar    
  42 C42           -3.5797    10.9011   -18.1050 C.ar    
  43 C43           -2.2955    11.0134   -18.6041 C.ar    
  44 C44           -1.2106    10.7902   -17.7769 C.ar    
  45 C45            1.2590     6.1204   -15.3499 C.3     
  46 H46            2.0841     1.5121    -1.8403 H       
  47 H47            2.4887     1.3394    -0.1129 H       
  48 H48            4.1563    -1.7112    -2.5852 H       
  49 H49            3.1995    -0.5011    -3.4784 H       
  50 H50            5.8312    -0.0184    -2.0010 H       
  51 H51            3.8927     3.0705    -1.2923 H       
  52 H52            4.8524     1.7558    -0.5761 H       
  53 H53            6.6556     0.4988    -4.2790 H       
  54 H54            6.0014    -1.1524    -4.2134 H       
  55 H55            5.2297     0.0510    -6.2605 H       
  56 H56            3.8567    -0.3416    -5.1898 H       
  57 H57            5.3489     2.3192    -5.2194 H       
  58 H58            2.8828     1.2458    -3.7304 H       
  59 H59            2.6060     1.5274    -6.3298 H       
  60 H60            2.2805     3.4948    -3.3680 H       
  61 H61            3.9363     4.0891    -3.6954 H       
  62 H62            4.8339     3.3965    -7.2505 H       
  63 H63            4.5764     1.7581    -7.8622 H       
  64 H64            3.6276     3.0440    -9.4785 H       
  65 H65            2.2431     2.5786    -8.4908 H       
  66 H66            1.3760     5.8692    -7.3171 H       
  67 H67            0.8259     4.2026    -7.5793 H       
  68 H68            1.2471     5.5450    -9.6319 H       
  69 H69            2.8713     7.2559    -9.6732 H       
  70 H70            4.9469     4.9802    -9.7443 H       
  71 H71            4.9790     7.5155   -12.6197 H       
  72 H72            4.2074     8.4110   -11.2986 H       
  73 H73            6.4300     6.3522   -11.0705 H       
  74 H74            5.0085     7.8744    -8.8280 H       
  75 H75            6.3543     6.7146    -8.6439 H       
  76 H76            6.4427     2.2591    -3.8767 H       
  77 H77            5.6436     3.6101    -3.0374 H       
  78 H78            6.6392     2.4556    -2.1186 H       
  79 H79            1.1404     6.2436    -5.3821 H       
  80 H80            1.1019     4.9456    -4.1648 H       
  81 H81            2.5970     5.8751    -4.4277 H       
  82 H82            6.2616     9.3252   -10.4138 H       
  83 H83            7.6795     8.2834   -10.1451 H       
  84 H84            7.1159     8.6096   -11.8016 H       
  85 H85            1.9153     3.1485   -10.3975 H       
  86 H86            1.7690     4.3852   -11.6693 H       
  87 H87            3.3767     3.9073   -11.0734 H       
  88 H88            1.8914     5.7337   -12.3639 H       
  89 H89            1.9146     7.4573   -11.9199 H       
  90 H90            3.6152     7.8859   -13.6728 H       
  91 H91            3.5920     6.1624   -14.1168 H       
  92 H92            0.4137     8.4469   -16.6312 H       
  93 H93           -0.6892     8.1123   -15.2748 H       
  94 H94           -0.4870    10.4685   -14.5291 H       
  95 H95            0.6160    10.8031   -15.8855 H       
  96 H96           -2.8500    10.0697   -14.9185 H       
  97 H97           -4.7824    10.4743   -16.3899 H       
  98 H98           -4.4273    11.0781   -18.7505 H       
  99 H99           -2.1397    11.2780   -19.6395 H       
 100 H100          -0.2072    10.8779   -18.1668 H       
 101 H101           0.4755     5.6524   -14.7538 H       
 102 H102           0.8316     6.4999   -16.2781 H       
 103 H103           2.0298     5.3845   -15.5790 H       
@<TRIPOS>BOND
   1    1    2 1
   2    1    6 1
   3    1   46 1
   4    1   47 1
   5    2    3 1
   6    2   32 2
   7    3    4 1
   8    3   48 1
   9    3   49 1
  10    4    5 1
  11    4    7 1
  12    4   50 1
  13    5    6 1
  14    5   27 1
  15    5   10 1
  16    6   51 1
  17    6   52 1
  18    7    8 1
  19    7   53 1
  20    7   54 1
  21    8    9 1
  22    8   55 1
  23    8   56 1
  24    9   10 1
  25    9   11 1
  26    9   57 1
  27   10   13 1
  28   10   58 1
  29   11   12 1
  30   11   14 1
  31   11   59 1
  32   12   13 1
  33   12   18 2
  34   13   60 1
  35   13   61 1
  36   14   15 1
  37   14   62 1
  38   14   63 1
  39   15   16 1
  40   15   64 1
  41   15   65 1
  42   16   17 1
  43   16   22 1
  44   16   19 1
  45   17   18 1
  46   17   66 1
  47   17   67 1
  48   18   28 1
  49   19   30 1
  50   19   20 1
  51   19   68 1
  52   20   21 1
  53   20   23 1
  54   20   69 1
  55   21   22 1
  56   21   26 1
  57   21   70 1
  58   23   24 1
  59   23   31 1
  60   24   25 1
  61   24   71 1
  62   24   72 1
  63   25   26 1
  64   25   29 1
  65   25   73 1
  66   26   74 1
  67   26   75 1
  68   27   76 1
  69   27   77 1
  70   27   78 1
  71   28   79 1
  72   28   80 1
  73   28   81 1
  74   29   82 1
  75   29   83 1
  76   29   84 1
  77   30   85 1
  78   30   86 1
  79   30   87 1
  80   31   33 1
  81   31   88 1
  82   31   89 1
  83   33   34 1
  84   33   90 1
  85   33   91 1
  86   34   35 am
  87   34   45 1
  88   35   36 1
  89   35   37 2
  90   36   38 1
  91   36   92 1
  92   36   93 1
  93   38   39 1
  94   38   94 1
  95   38   95 1
  96   39   40 ar
  97   39   44 ar
  98   40   41 ar
  99   40   96 1
 100   41   42 ar
 101   41   97 1
 102   42   43 ar
 103   42   98 1
 104   43   44 ar
 105   43   99 1
 106   44  100 1
 107   45  101 1
 108   45  102 1
 109   45  103 1

#	End of record

