#	Name: ASD01700013
#	Creating user name:	WinNT
#	Creation time:	15. 06. 2019 19:22

#	Modifying user name:	WinNT
#	Modification time:	15. 06. 2019 19:22

#	Program:	/corina/corina34_cracker 3.40 0067  02.08.2006

@<TRIPOS>MOLECULE
ASD01700013
 122  129    0    0    0
SMALL
NO_CHARGES


@<TRIPOS>ATOM
   1 N1            -0.2885     0.2214     2.1793 N.3     
   2 N2            -0.0175    -1.7172     2.2598 N.3     
   3 C3            -0.8601    -0.9083     1.3935 C.3     
   4 C4            -0.4384    -0.7935    -0.0737 C.3     
   5 C5             1.0731    -0.9584    -0.2325 C.3     
   6 C6             1.7930    -0.4367     1.0112 C.3     
   7 C7             0.9374    -0.6208     2.2671 C.3     
   8 O8             1.6710    -0.4398     3.4883 O.3     
   9 O9             1.4547    -2.2788    -0.5830 O.3     
  10 C10           -2.3749    -1.0844     1.5818 C.3     
  11 C11           -2.8339    -2.3544     0.8626 C.3     
  12 C12           -4.3088    -2.6135     1.1765 C.3     
  13 C13           -4.6457    -4.0780     0.8868 C.3     
  14 C14           -4.1985    -4.4976    -0.4936 C.3     
  15 C15           -5.3495    -4.4753    -1.4972 C.3     
  16 C16           -6.4460    -5.4256    -0.9965 C.3     
  17 C17           -6.9264    -4.9109     0.3357 C.2     
  18 C18           -6.1062    -4.2845     1.1590 C.2     
  19 C19           -6.6458    -3.6972     2.4073 C.2     
  20 C20           -5.9357    -2.8026     3.0723 C.2     
  21 C21           -4.5755    -2.3319     2.6560 C.3     
  22 C22           -3.5193    -3.0494     3.4990 C.3     
  23 C23           -7.6070    -5.4482    -1.9928 C.3     
  24 O24           -3.1575    -3.5931    -0.9483 O.3     
  25 C25           -2.2988    -4.0645    -1.8660 C.2     
  26 O26           -2.3448    -5.2259    -2.1961 O.2     
  27 C27           -1.2773    -3.1452    -2.4844 C.3     
  28 C28           -0.4680    -3.9130    -3.5315 C.3     
  29 C29            0.6494    -3.0171    -4.0700 C.3     
  30 C30           -1.9894    -1.9677    -3.1531 C.3     
  31 C31           -0.9414     0.3163     3.4913 C.3     
  32 C32            0.3970    -3.0206     1.8351 C.3     
  33 C33           -0.3141     1.4332     4.2850 C.ar    
  34 C34            1.5520    -3.4825     2.6858 C.ar    
  35 C35           -0.7121     2.7163     4.0665 C.ar    
  36 C36            1.3060    -4.1787     3.8291 C.ar    
  37 C37           -0.1295     3.7606     4.8046 C.ar    
  38 C38            2.3804    -4.6111     4.6250 C.ar    
  39 C39            0.8660     3.4592     5.7674 C.ar    
  40 C40            3.7066    -4.3139     4.2226 C.ar    
  41 C41            1.4490     4.5018     6.5064 C.ar    
  42 C42            4.7815    -4.7458     5.0168 C.ar    
  43 C43            1.0497     5.7894     6.2878 C.ar    
  44 C44            4.5352    -5.4448     6.1638 C.ar    
  45 C45            0.0672     6.0843     5.3372 C.ar    
  46 C46            3.2259    -5.7369     6.5589 C.ar    
  47 C47           -0.5163     5.0976     4.6058 C.ar    
  48 C48            2.1638    -5.3329     5.8119 C.ar    
  49 O49            1.6141     6.7971     7.0037 O.3     
  50 O50            5.5761    -5.8625     6.9311 O.3     
  51 C51            1.1555     8.1227     6.7306 C.3     
  52 C52            5.2557    -6.5892     8.1191 C.3     
  53 C53            2.5087     4.2012     7.5349 C.3     
  54 C54            6.1986    -4.4399     4.6052 C.3     
  55 O55            3.7968     4.2413     6.9174 O.3     
  56 O56            6.5985    -3.1887     5.1679 O.3     
  57 C57            1.2511     2.1218     5.9651 C.ar    
  58 C58            3.9212    -3.5926     3.0353 C.ar    
  59 C59            0.6607     1.1362     5.2357 C.ar    
  60 C60            2.8562    -3.1951     2.2870 C.ar    
  61 H61           -0.9547    -1.5601    -0.6637 H       
  62 H62           -0.7406     0.1870    -0.4627 H       
  63 H63            1.3814    -0.3042    -1.0817 H       
  64 H64            2.7436    -0.9690     1.1347 H       
  65 H65            2.0212     0.6285     0.8799 H       
  66 H66            2.4682    -0.9834     3.5524 H       
  67 H67            2.4087    -2.3980    -0.6869 H       
  68 H68           -2.6017    -1.1667     2.6448 H       
  69 H69           -2.8955    -0.2223     1.1648 H       
  70 H70           -2.7080    -2.2286    -0.2128 H       
  71 H71           -2.2362    -3.2004     1.2019 H       
  72 H72           -4.9329    -1.9661     0.5605 H       
  73 H73           -4.1027    -4.6876     1.6090 H       
  74 H74           -3.7915    -5.5075    -0.4429 H       
  75 H75           -5.7481    -3.4639    -1.5763 H       
  76 H76           -4.9929    -4.8073    -2.4722 H       
  77 H77           -6.0391    -6.4300    -0.8795 H       
  78 H78           -7.9577    -5.0564     0.6214 H       
  79 H79           -7.6164    -3.9987     2.7725 H       
  80 H80           -6.3627    -2.3844     3.9718 H       
  81 H81           -4.5010    -1.2589     2.8329 H       
  82 H82           -2.5287    -2.6839     3.2284 H       
  83 H83           -3.7029    -2.8532     4.5554 H       
  84 H84           -3.5739    -4.1221     3.3138 H       
  85 H85           -7.2471    -5.7923    -2.9624 H       
  86 H86           -8.3821    -6.1243    -1.6321 H       
  87 H87           -8.0189    -4.4441    -2.0936 H       
  88 H88           -0.6077    -2.7723    -1.7094 H       
  89 H89           -0.0327    -4.8016    -3.0745 H       
  90 H90           -1.1226    -4.2095    -4.3510 H       
  91 H91            0.2141    -2.1285    -4.5271 H       
  92 H92            1.3041    -2.7206    -3.2505 H       
  93 H93            1.2259    -3.5641    -4.8160 H       
  94 H94           -2.6590    -2.3406    -3.9281 H       
  95 H95           -2.5660    -1.4207    -2.4071 H       
  96 H96           -1.2506    -1.3028    -3.6004 H       
  97 H97           -2.0035     0.5197     3.3546 H       
  98 H98           -0.8177    -0.6245     4.0276 H       
  99 H99           -0.4337    -3.7184     1.9405 H       
 100 H100           0.7078    -2.9809     0.7911 H       
 101 H101          -1.4716     2.9309     3.3292 H       
 102 H102           0.2902    -4.3975     4.1233 H       
 103 H103          -0.2326     7.1102     5.1822 H       
 104 H104           3.0558    -6.2915     7.4699 H       
 105 H105          -1.2735     5.3400     3.8748 H       
 106 H106           1.1580    -5.5652     6.1294 H       
 107 H107           1.6859     8.8294     7.3688 H       
 108 H108           1.3450     8.3645     5.6848 H       
 109 H109           0.0857     8.1853     6.9299 H       
 110 H110           6.1751    -6.8622     8.6371 H       
 111 H111           4.6422    -5.9674     8.7711 H       
 112 H112           4.7054    -7.4924     7.8552 H       
 113 H113           2.4639     4.9447     8.3306 H       
 114 H114           2.3374     3.2097     7.9540 H       
 115 H115           6.8597    -5.2281     4.9654 H       
 116 H116           6.2574    -4.3848     3.5182 H       
 117 H117           4.5286     4.0567     7.5218 H       
 118 H118           7.5023    -2.9276     4.9439 H       
 119 H119           2.0086     1.8773     6.6951 H       
 120 H120           4.9262    -3.3586     2.7164 H       
 121 H121           0.9553     0.1090     5.3926 H       
 122 H122           3.0239    -2.6448     1.3730 H       
@<TRIPOS>BOND
   1    1    3 1
   2    1    7 1
   3    1   31 1
   4    2    3 1
   5    2    7 1
   6    2   32 1
   7    3    4 1
   8    3   10 1
   9    4    5 1
  10    4   61 1
  11    4   62 1
  12    5    6 1
  13    5    9 1
  14    5   63 1
  15    6    7 1
  16    6   64 1
  17    6   65 1
  18    7    8 1
  19    8   66 1
  20    9   67 1
  21   10   11 1
  22   10   68 1
  23   10   69 1
  24   11   12 1
  25   11   70 1
  26   11   71 1
  27   12   13 1
  28   12   21 1
  29   12   72 1
  30   13   14 1
  31   13   18 1
  32   13   73 1
  33   14   15 1
  34   14   24 1
  35   14   74 1
  36   15   16 1
  37   15   75 1
  38   15   76 1
  39   16   17 1
  40   16   23 1
  41   16   77 1
  42   17   18 2
  43   17   78 1
  44   18   19 1
  45   19   20 2
  46   19   79 1
  47   20   21 1
  48   20   80 1
  49   21   22 1
  50   21   81 1
  51   22   82 1
  52   22   83 1
  53   22   84 1
  54   23   85 1
  55   23   86 1
  56   23   87 1
  57   24   25 1
  58   25   26 2
  59   25   27 1
  60   27   28 1
  61   27   30 1
  62   27   88 1
  63   28   29 1
  64   28   89 1
  65   28   90 1
  66   29   91 1
  67   29   92 1
  68   29   93 1
  69   30   94 1
  70   30   95 1
  71   30   96 1
  72   31   33 1
  73   31   97 1
  74   31   98 1
  75   32   34 1
  76   32   99 1
  77   32  100 1
  78   33   35 ar
  79   33   59 ar
  80   34   36 ar
  81   34   60 ar
  82   35   37 ar
  83   35  101 1
  84   36   38 ar
  85   36  102 1
  86   37   39 ar
  87   37   47 ar
  88   38   40 ar
  89   38   48 ar
  90   39   41 ar
  91   39   57 ar
  92   40   42 ar
  93   40   58 ar
  94   41   43 ar
  95   41   53 1
  96   42   44 ar
  97   42   54 1
  98   43   45 ar
  99   43   49 1
 100   44   46 ar
 101   44   50 1
 102   45   47 ar
 103   45  103 1
 104   46   48 ar
 105   46  104 1
 106   47  105 1
 107   48  106 1
 108   49   51 1
 109   50   52 1
 110   51  107 1
 111   51  108 1
 112   51  109 1
 113   52  110 1
 114   52  111 1
 115   52  112 1
 116   53   55 1
 117   53  113 1
 118   53  114 1
 119   54   56 1
 120   54  115 1
 121   54  116 1
 122   55  117 1
 123   56  118 1
 124   57   59 ar
 125   57  119 1
 126   58   60 ar
 127   58  120 1
 128   59  121 1
 129   60  122 1

#	End of record

