#	Name: ASD01882523
#	Creating user name:	WinNT
#	Creation time:	15. 06. 2019 19:44

#	Modifying user name:	WinNT
#	Modification time:	15. 06. 2019 19:44

#	Program:	/corina/corina34_cracker 3.40 0067  02.08.2006

@<TRIPOS>MOLECULE
ASD01882523
  49   51    0    0    0
SMALL
NO_CHARGES


@<TRIPOS>ATOM
   1 C1            -0.5632     1.1085     0.1649 C.3     
   2 C2            -0.1874    -0.3616    -0.0311 C.3     
   3 C3             0.7182    -0.4975    -1.2568 C.3     
   4 C4             1.9880     0.3299    -1.0470 C.3     
   5 C5             1.6121     1.8001    -0.8510 C.3     
   6 C6             0.7065     1.9359     0.3747 C.3     
   7 O7            -1.2544     1.5818    -0.9928 O.3     
   8 C8             1.0941    -1.9676    -1.4528 C.3     
   9 C9            -0.0218     0.0093    -2.4963 C.3     
  10 C10           -1.4552     1.2423     1.3722 C.ar    
  11 C11           -2.3988     2.2515     1.4247 C.ar    
  12 C12           -3.2177     2.3763     2.5302 C.ar    
  13 C13           -3.0927     1.4879     3.5884 C.ar    
  14 C14           -2.1451     0.4761     3.5333 C.ar    
  15 C15           -1.3325     0.3521     2.4230 C.ar    
  16 O16           -3.8967     1.6088     4.6773 O.3     
  17 C17           -3.7121     0.6589     5.7288 C.3     
  18 C18           -4.6842     0.9481     6.8434 C.ar    
  19 C19           -5.9337     0.3567     6.8416 C.ar    
  20 C20           -6.8254     0.6220     7.8640 C.ar    
  21 C21           -6.4675     1.4784     8.8885 C.ar    
  22 C22           -5.2177     2.0691     8.8907 C.ar    
  23 C23           -4.3244     1.8004     7.8706 C.ar    
  24 H24            0.3398    -0.7227     0.8520 H       
  25 H25           -1.0920    -0.9511    -0.1806 H       
  26 H26            2.5151    -0.0311    -0.1639 H       
  27 H27            2.6331     0.2332    -1.9202 H       
  28 H28            2.5167     2.3895    -0.7015 H       
  29 H29            1.0849     2.1611    -1.7340 H       
  30 H30            0.4387     2.9832     0.5143 H       
  31 H31            1.2337     1.5748     1.2578 H       
  32 H32           -1.5237     2.5090    -0.9384 H       
  33 H33            0.1895    -2.5571    -1.6023 H       
  34 H34            1.7392    -2.0644    -2.3260 H       
  35 H35            1.6213    -2.3287    -0.5697 H       
  36 H36           -0.1143     1.0942    -2.4459 H       
  37 H37            0.5365    -0.2665    -3.3909 H       
  38 H38           -1.0147    -0.4386    -2.5352 H       
  39 H39           -2.4955     2.9431     0.6008 H       
  40 H40           -3.9543     3.1650     2.5709 H       
  41 H41           -2.0458    -0.2168     4.3558 H       
  42 H42           -0.5979    -0.4383     2.3776 H       
  43 H43           -3.8875    -0.3462     5.3454 H       
  44 H44           -2.6927     0.7303     6.1081 H       
  45 H45           -6.2133    -0.3124     6.0413 H       
  46 H46           -7.8018     0.1605     7.8623 H       
  47 H47           -7.1645     1.6862     9.6869 H       
  48 H48           -4.9383     2.7384     9.6909 H       
  49 H49           -3.3466     2.2590     7.8742 H       
@<TRIPOS>BOND
   1    1    2 1
   2    1    6 1
   3    1    7 1
   4    1   10 1
   5    2    3 1
   6    2   24 1
   7    2   25 1
   8    3    4 1
   9    3    8 1
  10    3    9 1
  11    4    5 1
  12    4   26 1
  13    4   27 1
  14    5    6 1
  15    5   28 1
  16    5   29 1
  17    6   30 1
  18    6   31 1
  19    7   32 1
  20    8   33 1
  21    8   34 1
  22    8   35 1
  23    9   36 1
  24    9   37 1
  25    9   38 1
  26   10   11 ar
  27   10   15 ar
  28   11   12 ar
  29   11   39 1
  30   12   13 ar
  31   12   40 1
  32   13   14 ar
  33   13   16 1
  34   14   15 ar
  35   14   41 1
  36   15   42 1
  37   16   17 1
  38   17   18 1
  39   17   43 1
  40   17   44 1
  41   18   19 ar
  42   18   23 ar
  43   19   20 ar
  44   19   45 1
  45   20   21 ar
  46   20   46 1
  47   21   22 ar
  48   21   47 1
  49   22   23 ar
  50   22   48 1
  51   23   49 1

#	End of record

