#	Name: ASD01230583
#	Creating user name:	WinNT
#	Creation time:	15. 06. 2019 19:14

#	Modifying user name:	WinNT
#	Modification time:	15. 06. 2019 19:14

#	Program:	/corina/corina34_cracker 3.40 0067  02.08.2006

@<TRIPOS>MOLECULE
ASD01230583
  45   48    0    0    0
SMALL
NO_CHARGES


@<TRIPOS>ATOM
   1 C1            -1.3793     1.3353     1.2291 C.ar    
   2 C2            -1.1073    -0.0291     1.1894 C.ar    
   3 O3            -1.1651    -0.7014     0.0090 O.3     
   4 C4            -0.9985    -2.0496     0.0339 C.ar    
   5 C5            -2.0972    -2.8802     0.2117 C.ar    
   6 C6             0.2693    -2.5940    -0.1241 C.ar    
   7 C7             0.4420    -3.9616    -0.0998 C.ar    
   8 C8            -0.6589    -4.7990     0.0840 C.ar    
   9 C9            -1.9320    -4.2487     0.2372 C.ar    
  10 C10           -0.4775    -6.2682     0.1102 C.2     
  11 C11           -1.0754    -7.1156    -0.9435 C.2     
  12 C12            0.2556    -6.8631     1.1139 C.2     
  13 C13            0.4067    -8.2567     1.1103 C.2     
  14 C14           -0.1616    -9.0075     0.1514 C.2     
  15 N15           -0.9130    -8.4693    -0.8638 N.pl3   
  16 C16           -1.5153    -9.4221    -1.8000 C.3     
  17 C17           -1.5296    -8.8467    -3.2191 C.3     
  18 S18           -2.4447    -7.2742    -3.1511 S.o2    
  19 N19           -1.7161    -6.4805    -1.8947 N.am    
  20 O20           -2.1625    -6.4767    -4.2929 O.2     
  21 O21           -3.7788    -7.4857    -2.7097 O.2     
  22 C22           -1.3186     2.0159     2.4345 C.ar    
  23 C23           -0.9883     1.3398     3.5942 C.ar    
  24 C24           -0.7175    -0.0155     3.5548 C.ar    
  25 C25           -0.7768    -0.7008     2.3558 C.ar    
  26 O26           -1.6986     2.0000     0.0865 O.3     
  27 C27           -1.9654     3.3991     0.2029 C.3     
  28 H28           -3.0822    -2.4535     0.3306 H       
  29 H29            1.1209    -1.9452    -0.2667 H       
  30 H30            1.4282    -4.3843    -0.2232 H       
  31 H31           -2.7863    -4.8939     0.3796 H       
  32 H32            0.7073    -6.2647     1.8913 H       
  33 H33            0.9870    -8.7325     1.8870 H       
  34 H34           -0.0182   -10.0776     0.1784 H       
  35 H35           -0.9382   -10.3467    -1.7929 H       
  36 H36           -2.5378    -9.6349    -1.4881 H       
  37 H37           -0.5091    -8.6682    -3.5578 H       
  38 H38           -2.0307    -9.5391    -3.8955 H       
  39 H39           -1.5289     3.0747     2.4680 H       
  40 H40           -0.9413     1.8715     4.5330 H       
  41 H41           -0.4596    -0.5400     4.4630 H       
  42 H42           -0.5652    -1.7595     2.3279 H       
  43 H43           -2.8082     3.5534     0.8767 H       
  44 H44           -1.0854     3.9050     0.5999 H       
  45 H45           -2.2063     3.8059    -0.7792 H       
@<TRIPOS>BOND
   1    1    2 ar
   2    1   22 ar
   3    1   26 1
   4    2    3 1
   5    2   25 ar
   6    3    4 1
   7    4    5 ar
   8    4    6 ar
   9    5    9 ar
  10    5   28 1
  11    6    7 ar
  12    6   29 1
  13    7    8 ar
  14    7   30 1
  15    8    9 ar
  16    8   10 1
  17    9   31 1
  18   10   11 1
  19   10   12 2
  20   11   15 1
  21   11   19 2
  22   12   13 1
  23   12   32 1
  24   13   14 2
  25   13   33 1
  26   14   15 1
  27   14   34 1
  28   15   16 1
  29   16   17 1
  30   16   35 1
  31   16   36 1
  32   17   18 1
  33   17   37 1
  34   17   38 1
  35   18   19 am
  36   18   20 2
  37   18   21 2
  38   22   23 ar
  39   22   39 1
  40   23   24 ar
  41   23   40 1
  42   24   25 ar
  43   24   41 1
  44   25   42 1
  45   26   27 1
  46   27   43 1
  47   27   44 1
  48   27   45 1

#	End of record

