#	Name: ASD01811386
#	Creating user name:	WinNT
#	Creation time:	15. 06. 2019 19:26

#	Modifying user name:	WinNT
#	Modification time:	15. 06. 2019 19:26

#	Program:	/corina/corina34_cracker 3.40 0067  02.08.2006

@<TRIPOS>MOLECULE
ASD01811386
  19   19    0    0    0
SMALL
NO_CHARGES


@<TRIPOS>ATOM
   1 C1            -0.0168     1.3865     0.0097 C.ar    
   2 C2             0.0021    -0.0041     0.0020 C.ar    
   3 C3             1.2313    -0.6625    -0.0132 C.ar    
   4 C4             2.3940     0.1068    -0.0202 C.ar    
   5 C5             2.2923     1.4856    -0.0118 C.ar    
   6 N6             1.1173     2.0786     0.0026 N.ar    
   7 C7            -1.3130     2.1025     0.0197 C.2     
   8 O8            -2.3529     1.4756     0.0212 O.2     
   9 O9            -1.3385     3.4490     0.0271 O.3     
  10 C10            3.7467    -0.5572    -0.0361 C.3     
  11 N11            1.2958    -2.0529    -0.0209 N.pl3   
  12 H12           -0.9207    -0.5652     0.0082 H       
  13 H13            3.1906     2.0851    -0.0171 H       
  14 H14           -2.2082     3.8716     0.0335 H       
  15 H15            4.0632    -0.7121    -1.0676 H       
  16 H16            4.4698     0.0790     0.4742 H       
  17 H17            3.6854    -1.5188     0.4734 H       
  18 H18            0.4792    -2.5763    -0.0156 H       
  19 H19            2.1574    -2.4984    -0.0315 H       
@<TRIPOS>BOND
   1    1    2 ar
   2    1    6 ar
   3    1    7 1
   4    2    3 ar
   5    2   12 1
   6    3    4 ar
   7    3   11 1
   8    4    5 ar
   9    4   10 1
  10    5    6 ar
  11    5   13 1
  12    7    8 2
  13    7    9 1
  14    9   14 1
  15   10   15 1
  16   10   16 1
  17   10   17 1
  18   11   18 1
  19   11   19 1

#	End of record

