#	Name: ASD01903129
#	Creating user name:	WinNT
#	Creation time:	15. 06. 2019 19:54

#	Modifying user name:	WinNT
#	Modification time:	15. 06. 2019 19:54

#	Program:	/corina/corina34_cracker 3.40 0067  02.08.2006

@<TRIPOS>MOLECULE
ASD01903129
  53   55    0    0    0
SMALL
NO_CHARGES


@<TRIPOS>ATOM
   1 C1             0.7428    -1.0876     0.1169 C.ar    
   2 C2             0.8810    -2.0312     1.1225 C.ar    
   3 C3             2.0724    -2.1038     1.8270 C.ar    
   4 N4             3.0692    -1.2908     1.5539 N.ar    
   5 C5             2.9777    -0.3732     0.5989 C.ar    
   6 C6             1.8101    -0.2441    -0.1495 C.ar    
   7 C7             4.1269     0.5212     0.3273 C.2     
   8 N8             5.2592     0.4014     1.0483 N.am    
   9 O9             4.0486     1.3629    -0.5458 O.2     
  10 C10            6.3766     1.1792     0.7296 C.ar    
  11 C11            6.2107     2.4797     0.2704 C.ar    
  12 C12            7.3149     3.2480    -0.0445 C.ar    
  13 C13            8.5863     2.7256     0.0961 C.ar    
  14 C14            8.7582     1.4266     0.5544 C.ar    
  15 C15            7.6535     0.6546     0.8769 C.ar    
  16 O16           10.0093     0.9142     0.6922 O.3     
  17 C17           10.1095    -0.4609     1.0678 C.3     
  18 S18            9.9914     3.7093    -0.3075 S.o2    
  19 N19           10.8398     3.9504     1.0941 N.am    
  20 O20           10.8157     2.9080    -1.1427 O.2     
  21 O21            9.4920     4.9810    -0.6981 O.2     
  22 C22           10.2794     4.7024     2.1291 C.ar    
  23 C23           10.0944     6.0705     1.9744 C.ar    
  24 C24            9.5396     6.8109     2.9997 C.ar    
  25 C25            9.1683     6.1920     4.1792 C.ar    
  26 C26            9.3511     4.8303     4.3365 C.ar    
  27 C27            9.9005     4.0830     3.3133 C.ar    
  28 C28           10.0988     2.5991     3.4855 C.3     
  29 C29           10.4992     6.7459     0.6895 C.3     
  30 C30            8.5636     7.0034     5.2960 C.3     
  31 H31           -0.1739    -1.0141    -0.4492 H       
  32 H32            0.0682    -2.7032     1.3552 H       
  33 H33            2.1835    -2.8380     2.6113 H       
  34 H34            1.7373     0.5027    -0.9264 H       
  35 H35            5.2990    -0.2244     1.7884 H       
  36 H36            5.2180     2.8903     0.1593 H       
  37 H37            7.1841     4.2588    -0.4017 H       
  38 H38            7.7853    -0.3562     1.2336 H       
  39 H39            9.5601    -0.6252     1.9948 H       
  40 H40            9.6872    -1.0844     0.2798 H       
  41 H41           11.1574    -0.7218     1.2154 H       
  42 H42           11.7260     3.5694     1.1962 H       
  43 H43            9.3958     7.8746     2.8802 H       
  44 H44            9.0600     4.3501     5.2591 H       
  45 H45            9.1771     2.0771     3.2284 H       
  46 H46           10.9022     2.2615     2.8307 H       
  47 H47           10.3605     2.3853     4.5218 H       
  48 H48            9.6299     6.8391     0.0385 H       
  49 H49           10.8964     7.7368     0.9094 H       
  50 H50           11.2641     6.1502     0.1912 H       
  51 H51            7.4800     7.0291     5.1809 H       
  52 H52            8.8166     6.5485     6.2537 H       
  53 H53            8.9569     8.0194     5.2611 H       
@<TRIPOS>BOND
   1    1    2 ar
   2    1    6 ar
   3    1   31 1
   4    2    3 ar
   5    2   32 1
   6    3    4 ar
   7    3   33 1
   8    4    5 ar
   9    5    6 ar
  10    5    7 1
  11    6   34 1
  12    7    8 am
  13    7    9 2
  14    8   10 1
  15    8   35 1
  16   10   11 ar
  17   10   15 ar
  18   11   12 ar
  19   11   36 1
  20   12   13 ar
  21   12   37 1
  22   13   14 ar
  23   13   18 1
  24   14   15 ar
  25   14   16 1
  26   15   38 1
  27   16   17 1
  28   17   39 1
  29   17   40 1
  30   17   41 1
  31   18   19 am
  32   18   20 2
  33   18   21 2
  34   19   22 1
  35   19   42 1
  36   22   23 ar
  37   22   27 ar
  38   23   24 ar
  39   23   29 1
  40   24   25 ar
  41   24   43 1
  42   25   26 ar
  43   25   30 1
  44   26   27 ar
  45   26   44 1
  46   27   28 1
  47   28   45 1
  48   28   46 1
  49   28   47 1
  50   29   48 1
  51   29   49 1
  52   29   50 1
  53   30   51 1
  54   30   52 1
  55   30   53 1

#	End of record

