#	Name: ASD04550064
#	Creating user name:	WinNT
#	Creation time:	15. 06. 2019 20:49

#	Modifying user name:	WinNT
#	Modification time:	15. 06. 2019 20:49

#	Program:	/corina/corina34_cracker 3.40 0067  02.08.2006

@<TRIPOS>MOLECULE
ASD04550064
  30   30    0    0    0
SMALL
NO_CHARGES


@<TRIPOS>ATOM
   1 C1            -0.0167     1.3831     0.0096 C.ar    
   2 C2             0.0021    -0.0041     0.0020 C.ar    
   3 C3             1.2141    -0.6789    -0.0132 C.ar    
   4 C4             2.3989     0.0314    -0.0207 C.ar    
   5 C5             2.3774     1.4139    -0.0126 C.ar    
   6 C6             1.1708     2.0889     0.0021 C.ar    
   7 C7             3.6714     2.1863    -0.0198 C.3     
   8 C8             3.7284     3.0742    -1.2645 C.3     
   9 O9            -1.1648    -0.7006     0.0099 O.3     
  10 S10           -1.7101    -1.0105    -1.3769 S.o2    
  11 O11           -3.0259    -1.4906    -1.1368 O.2     
  12 O12           -1.4892     0.1834    -2.1151 O.2     
  13 C13            3.7497     3.0468     1.2149 C.2     
  14 O14            2.8439     3.0340     2.0214 O.2     
  15 N15            4.8262     3.8305     1.4230 N.am    
  16 O16            4.8998     4.6389     2.5832 O.3     
  17 C17           -0.6479    -2.3457    -1.9931 C.3     
  18 F18           -0.7408    -3.4482    -1.1370 F       
  19 F19           -1.0619    -2.7160    -3.2771 F       
  20 F20            0.6781    -1.9024    -2.0404 F       
  21 H21           -0.9590     1.9108     0.0170 H       
  22 H22            1.2314    -1.7588    -0.0188 H       
  23 H23            3.3426    -0.4935    -0.0325 H       
  24 H24            1.1567     3.1688     0.0084 H       
  25 H25            4.5100     1.4902    -0.0313 H       
  26 H26            4.6643     3.6329    -1.2698 H       
  27 H27            3.6718     2.4518    -2.1576 H       
  28 H28            2.8898     3.7703    -1.2530 H       
  29 H29            5.5506     3.8407     0.7781 H       
  30 H30            5.7085     5.1654     2.6451 H       
@<TRIPOS>BOND
   1    1    2 ar
   2    1    6 ar
   3    1   21 1
   4    2    3 ar
   5    2    9 1
   6    3    4 ar
   7    3   22 1
   8    4    5 ar
   9    4   23 1
  10    5    6 ar
  11    5    7 1
  12    6   24 1
  13    7    8 1
  14    7   13 1
  15    7   25 1
  16    8   26 1
  17    8   27 1
  18    8   28 1
  19    9   10 1
  20   10   11 2
  21   10   12 2
  22   10   17 1
  23   13   14 2
  24   13   15 am
  25   15   16 1
  26   15   29 1
  27   16   30 1
  28   17   18 1
  29   17   19 1
  30   17   20 1

#	End of record

