#	Name: ASD04882019
#	Creating user name:	WinNT
#	Creation time:	15. 06. 2019 20:53

#	Modifying user name:	WinNT
#	Modification time:	15. 06. 2019 20:53

#	Program:	/corina/corina34_cracker 3.40 0067  02.08.2006

@<TRIPOS>MOLECULE
ASD04882019
  80   84    0    0    0
SMALL
NO_CHARGES


@<TRIPOS>ATOM
   1 C1            -0.7098     2.6713     2.0419 C.ar    
   2 C2            -0.7454     1.2952     1.9124 C.ar    
   3 C3             0.4315     0.5774     1.8000 C.ar    
   4 C4             1.6464     1.2334     1.8169 C.ar    
   5 C5             1.6858     2.6161     1.9468 C.ar    
   6 C6             0.5020     3.3338     2.0594 C.ar    
   7 N7             2.9130     3.2828     1.9647 N.3     
   8 C8             3.0762     4.1178     0.7665 C.3     
   9 C9             4.3938     4.8906     0.8621 C.3     
  10 N10            5.5073     3.9407     0.9942 N.3     
  11 C11            5.3441     3.1057     2.1924 C.3     
  12 C12            4.0265     2.3329     2.0968 C.3     
  13 C13            6.7308     4.6054     1.0120 C.ar    
  14 C14            7.5063     4.6008     2.1653 C.ar    
  15 C15            8.7174     5.2570     2.1874 C.ar    
  16 C16            9.1694     5.9301     1.0493 C.ar    
  17 C17            8.3912     5.9362    -0.1121 C.ar    
  18 C18            7.1800     5.2715    -0.1320 C.ar    
  19 N19            6.3970     5.2753    -1.2941 N.am    
  20 C20            6.5041     6.2893    -2.1755 C.2     
  21 C21            5.6143     6.3425    -3.3490 C.2     
  22 O22            7.3350     7.1604    -2.0023 O.2     
  23 C23            5.5949     7.2937    -4.3267 C.2     
  24 C24            4.5664     5.3781    -3.7142 C.2     
  25 C25            4.0240     5.8363    -4.8527 C.2     
  26 O26            4.6419     6.9737    -5.2076 O.3     
  27 C27           10.4659     6.6336     1.0735 C.2     
  28 N28           11.2152     6.6275     2.1937 N.am    
  29 O29           10.8585     7.2190     0.0826 O.2     
  30 C30           12.5026     7.3261     2.2177 C.3     
  31 C31           13.1449     7.1646     3.5969 C.3     
  32 C32            0.5398     4.8337     2.2006 C.3     
  33 C33           14.4895     7.8943     3.6219 C.3     
  34 N34           15.1045     7.7396     4.9426 N.am    
  35 C35           15.9314     6.7354     5.2813 C.2     
  36 C36           14.9020     8.6647     6.0638 C.3     
  37 C37           15.3609     7.8943     7.3217 C.3     
  38 C38           16.3686     6.8848     6.7218 C.3     
  39 O39           16.2761     5.8395     4.5401 O.2     
  40 C40            2.9028     5.1769    -5.6137 C.3     
  41 C41            6.4947     8.5003    -4.4008 C.3     
  42 H42           -1.6308     3.2293     2.1249 H       
  43 H43           -1.6943     0.7796     1.8993 H       
  44 H44            0.4002    -0.4974     1.6993 H       
  45 H45            2.5650     0.6723     1.7294 H       
  46 H46            3.0902     3.4834    -0.1197 H       
  47 H47            2.2463     4.8211     0.6976 H       
  48 H48            4.5309     5.4885    -0.0389 H       
  49 H49            4.3690     5.5453     1.7332 H       
  50 H50            6.1740     2.4024     2.2614 H       
  51 H51            5.3301     3.7401     3.0787 H       
  52 H52            3.8894     1.7349     2.9978 H       
  53 H53            4.0513     1.6782     1.2257 H       
  54 H54            7.1586     4.0819     3.0464 H       
  55 H55            9.3177     5.2517     3.0851 H       
  56 H56            8.7380     6.4555    -0.9933 H       
  57 H57            5.7780     4.5481    -1.4642 H       
  58 H58            4.2899     4.4834    -3.1762 H       
  59 H59           10.9020     6.1605     2.9841 H       
  60 H60           13.1602     6.9022     1.4588 H       
  61 H61           12.3454     8.3849     2.0119 H       
  62 H62           12.4873     7.5885     4.3559 H       
  63 H63           13.3022     6.1059     3.8027 H       
  64 H64            0.5886     5.2906     1.2122 H       
  65 H65           -0.3600     5.1732     2.7137 H       
  66 H66            1.4181     5.1223     2.7781 H       
  67 H67           15.1471     7.4704     2.8630 H       
  68 H68           14.3322     8.9530     3.4161 H       
  69 H69           15.5081     9.5604     5.9281 H       
  70 H70           13.8483     8.9306     6.1478 H       
  71 H71           15.8535     8.5610     8.0294 H       
  72 H72           14.5226     7.3798     7.7915 H       
  73 H73           16.3055     5.9285     7.2409 H       
  74 H74           17.3825     7.2817     6.7732 H       
  75 H75            1.9467     5.5568    -5.2537 H       
  76 H76            3.0051     5.3987    -6.6760 H       
  77 H77            2.9457     4.0984    -5.4619 H       
  78 H78            7.3953     8.2481    -4.9606 H       
  79 H79            5.9709     9.3139    -4.9026 H       
  80 H80            6.7687     8.8117    -3.3928 H       
@<TRIPOS>BOND
   1    1    2 ar
   2    1    6 ar
   3    1   42 1
   4    2    3 ar
   5    2   43 1
   6    3    4 ar
   7    3   44 1
   8    4    5 ar
   9    4   45 1
  10    5    6 ar
  11    5    7 1
  12    6   32 1
  13    7    8 1
  14    7   12 1
  15    8    9 1
  16    8   46 1
  17    8   47 1
  18    9   10 1
  19    9   48 1
  20    9   49 1
  21   10   11 1
  22   10   13 1
  23   11   12 1
  24   11   50 1
  25   11   51 1
  26   12   52 1
  27   12   53 1
  28   13   14 ar
  29   13   18 ar
  30   14   15 ar
  31   14   54 1
  32   15   16 ar
  33   15   55 1
  34   16   17 ar
  35   16   27 1
  36   17   18 ar
  37   17   56 1
  38   18   19 1
  39   19   20 am
  40   19   57 1
  41   20   21 1
  42   20   22 2
  43   21   23 2
  44   21   24 1
  45   23   41 1
  46   23   26 1
  47   24   25 2
  48   24   58 1
  49   25   26 1
  50   25   40 1
  51   27   28 am
  52   27   29 2
  53   28   30 1
  54   28   59 1
  55   30   31 1
  56   30   60 1
  57   30   61 1
  58   31   33 1
  59   31   62 1
  60   31   63 1
  61   32   64 1
  62   32   65 1
  63   32   66 1
  64   33   34 1
  65   33   67 1
  66   33   68 1
  67   34   35 am
  68   34   36 1
  69   35   39 2
  70   35   38 1
  71   36   37 1
  72   36   69 1
  73   36   70 1
  74   37   38 1
  75   37   71 1
  76   37   72 1
  77   38   73 1
  78   38   74 1
  79   40   75 1
  80   40   76 1
  81   40   77 1
  82   41   78 1
  83   41   79 1
  84   41   80 1

#	End of record

