#	Name: ASD01813636
#	Creating user name:	WinNT
#	Creation time:	15. 06. 2019 19:30

#	Modifying user name:	WinNT
#	Modification time:	15. 06. 2019 19:30

#	Program:	/corina/corina34_cracker 3.40 0067  02.08.2006

@<TRIPOS>MOLECULE
ASD01813636
  48   52    0    0    0
SMALL
NO_CHARGES


@<TRIPOS>ATOM
   1 C1            -0.3256     0.9961     0.5453 C.ar    
   2 C2            -0.1618    -0.3814     0.5241 C.ar    
   3 C3             1.0854    -0.9395     0.3336 C.ar    
   4 C4             2.1971    -0.1158     0.1599 C.ar    
   5 C5             2.0265     1.2785     0.1820 C.ar    
   6 C6             0.7591     1.8279     0.3757 C.ar    
   7 N7             3.4494    -0.6602    -0.0304 N.pl3   
   8 C8             4.5472     0.0870    -0.2003 C.2     
   9 C9             4.5054     1.4669    -0.1975 C.2     
  10 C10            3.2104     2.1385    -0.0030 C.2     
  11 O11            3.1204     3.3537     0.0073 O.2     
  12 C12            5.7334     2.2520    -0.3864 C.2     
  13 O13            5.6796     3.5990    -0.3816 O.3     
  14 O14            6.7976     1.6868    -0.5470 O.2     
  15 C15            3.5847    -2.1189    -0.0469 C.3     
  16 C16            3.4437    -2.6205    -1.4610 C.ar    
  17 C17            4.5307    -2.6134    -2.3154 C.ar    
  18 N18            4.4208    -3.0490    -3.5539 N.ar    
  19 C19            3.2704    -3.5097    -4.0297 C.ar    
  20 C20            2.1335    -3.5451    -3.2227 C.ar    
  21 C21            2.2228    -3.0993    -1.9160 C.ar    
  22 F22            1.2296    -2.2827     0.3158 F       
  23 C23            3.1934    -3.9894    -5.4286 C.ar    
  24 C24            4.1645    -4.8829    -5.9444 C.ar    
  25 C25            4.0360    -5.3060    -7.2921 C.ar    
  26 C26            2.9580    -4.8232    -8.0516 C.ar    
  27 N27            2.0893    -3.9957    -7.5181 N.ar    
  28 C28            2.1674    -3.5803    -6.2638 C.ar    
  29 C29            5.2318    -5.3519    -5.1706 C.ar    
  30 C30            6.1353    -6.2105    -5.7229 C.ar    
  31 C31            6.0119    -6.6275    -7.0465 C.ar    
  32 C32            4.9853    -6.1911    -7.8279 C.ar    
  33 H33           -1.3089     1.4182     0.6909 H       
  34 H34           -1.0196    -1.0236     0.6586 H       
  35 H35            0.6289     2.8999     0.3923 H       
  36 H36            5.4972    -0.4062    -0.3441 H       
  37 H37            6.5132     4.0721    -0.5097 H       
  38 H38            4.5643    -2.3974     0.3414 H       
  39 H39            2.8076    -2.5629     0.5753 H       
  40 H40            5.4829    -2.2452    -1.9628 H       
  41 H41            1.1978    -3.9198    -3.6108 H       
  42 H42            1.3595    -3.1149    -1.2671 H       
  43 H43            2.8431    -5.1338    -9.0795 H       
  44 H44            1.4197    -2.8986    -5.8861 H       
  45 H45            5.3393    -5.0357    -4.1435 H       
  46 H46            6.9591    -6.5725    -5.1257 H       
  47 H47            6.7418    -7.3080    -7.4595 H       
  48 H48            4.9023    -6.5228    -8.8523 H       
@<TRIPOS>BOND
   1    1    2 ar
   2    1    6 ar
   3    1   33 1
   4    2    3 ar
   5    2   34 1
   6    3    4 ar
   7    3   22 1
   8    4    5 ar
   9    4    7 1
  10    5    6 ar
  11    5   10 1
  12    6   35 1
  13    7    8 1
  14    7   15 1
  15    8    9 2
  16    8   36 1
  17    9   10 1
  18    9   12 1
  19   10   11 2
  20   12   13 1
  21   12   14 2
  22   13   37 1
  23   15   16 1
  24   15   38 1
  25   15   39 1
  26   16   17 ar
  27   16   21 ar
  28   17   18 ar
  29   17   40 1
  30   18   19 ar
  31   19   20 ar
  32   19   23 1
  33   20   21 ar
  34   20   41 1
  35   21   42 1
  36   23   24 ar
  37   23   28 ar
  38   24   25 ar
  39   24   29 ar
  40   25   26 ar
  41   25   32 ar
  42   26   27 ar
  43   26   43 1
  44   27   28 ar
  45   28   44 1
  46   29   30 ar
  47   29   45 1
  48   30   31 ar
  49   30   46 1
  50   31   32 ar
  51   31   47 1
  52   32   48 1

#	End of record

