#	Name: ASD03090083
#	Creating user name:	WinNT
#	Creation time:	15. 06. 2019 20:28

#	Modifying user name:	WinNT
#	Modification time:	15. 06. 2019 20:28

#	Program:	/corina/corina34_cracker 3.40 0067  02.08.2006

@<TRIPOS>MOLECULE
ASD03090083
  38   39    0    0    0
SMALL
NO_CHARGES


@<TRIPOS>ATOM
   1 C1            -0.0179     1.4706     0.0101 C.2     
   2 C2             0.0021    -0.0041     0.0020 C.ar    
   3 C3             1.2216    -0.6880    -0.0133 C.ar    
   4 C4             1.2372    -2.0588    -0.0203 C.ar    
   5 C5             0.0396    -2.7703    -0.0122 C.ar    
   6 C6            -1.1768    -2.0917     0.0030 C.ar    
   7 C7            -1.1984    -0.7210     0.0155 C.ar    
   8 O8             1.0268     2.0929     0.0035 O.2     
   9 N9            -1.1941     2.1285     0.0193 N.am    
  10 S10            0.0635    -4.5322    -0.0219 S.3     
  11 C11           -1.6982    -4.9642    -0.0067 C.3     
  12 F12           -2.3195    -4.4287    -1.1400 F       
  13 F13           -1.8370    -6.3563    -0.0128 F       
  14 F14           -2.2968    -4.4409     1.1444 F       
  15 C15           -1.2140     3.5934     0.0273 C.3     
  16 C16           -2.6415     4.0763     0.0367 C.ar    
  17 C17           -3.2893     4.2909     1.2377 C.ar    
  18 C18           -4.6049     4.7360     1.2454 C.ar    
  19 C19           -5.2649     4.9640     0.0443 C.ar    
  20 C20           -4.6114     4.7474    -1.1527 C.ar    
  21 C21           -3.2994     4.3095    -1.1567 C.ar    
  22 N22           -5.2631     4.9536     2.4580 N.pl3   
  23 C23           -6.6508     5.4231     2.4642 C.3     
  24 H24            2.1504    -0.1369    -0.0199 H       
  25 H25            2.1788    -2.5876    -0.0325 H       
  26 H26           -2.1037    -2.6459     0.0089 H       
  27 H27           -2.1417    -0.1954     0.0315 H       
  28 H28           -2.0275     1.6321     0.0205 H       
  29 H29           -0.7009     3.9588     0.9169 H       
  30 H30           -0.7094     3.9685    -0.8630 H       
  31 H31           -2.7735     4.1124     2.1696 H       
  32 H32           -6.2880     5.3098     0.0468 H       
  33 H33           -5.1239     4.9244    -2.0867 H       
  34 H34           -2.7891     4.1455    -2.0943 H       
  35 H35           -4.8014     4.7938     3.2959 H       
  36 H36           -6.7111     6.3853     1.9555 H       
  37 H37           -7.2816     4.6992     1.9484 H       
  38 H38           -6.9921     5.5343     3.4934 H       
@<TRIPOS>BOND
   1    1    2 1
   2    1    8 2
   3    1    9 am
   4    2    3 ar
   5    2    7 ar
   6    3    4 ar
   7    3   24 1
   8    4    5 ar
   9    4   25 1
  10    5    6 ar
  11    5   10 1
  12    6    7 ar
  13    6   26 1
  14    7   27 1
  15    9   15 1
  16    9   28 1
  17   10   11 1
  18   11   12 1
  19   11   13 1
  20   11   14 1
  21   15   16 1
  22   15   29 1
  23   15   30 1
  24   16   17 ar
  25   16   21 ar
  26   17   18 ar
  27   17   31 1
  28   18   19 ar
  29   18   22 1
  30   19   20 ar
  31   19   32 1
  32   20   21 ar
  33   20   33 1
  34   21   34 1
  35   22   23 1
  36   22   35 1
  37   23   36 1
  38   23   37 1
  39   23   38 1

#	End of record

