#	Name: ASD01840104
#	Creating user name:	WinNT
#	Creation time:	15. 06. 2019 19:37

#	Modifying user name:	WinNT
#	Modification time:	15. 06. 2019 19:37

#	Program:	/corina/corina34_cracker 3.40 0067  02.08.2006

@<TRIPOS>MOLECULE
ASD01840104
  47   50    0    0    0
SMALL
NO_CHARGES


@<TRIPOS>ATOM
   1 N1             1.3207    -0.7349    -0.3723 N.ar    
   2 C2             0.1946    -0.2039    -0.8060 C.ar    
   3 C3             0.0888     1.1576    -1.0218 C.ar    
   4 C4             1.1850     1.9684    -0.7768 C.ar    
   5 C5             2.3575     1.3747    -0.3198 C.ar    
   6 C6             2.3865     0.0014    -0.1272 C.ar    
   7 C7            -0.9931    -1.0930    -1.0706 C.3     
   8 O8             3.4587     2.1298    -0.0658 O.3     
   9 C9             3.3133     3.5470    -0.1766 C.3     
  10 C10            4.3588     4.2390     0.7025 C.3     
  11 C11            4.2379     5.7551     0.5328 C.3     
  12 N12            4.4459     6.1093    -0.8770 N.3     
  13 C13            3.4251     5.4944    -1.7351 C.3     
  14 C14            3.5217     3.9705    -1.6332 C.3     
  15 C15            4.4727     7.4773    -1.0439 C.ar    
  16 C16            5.6308     8.1278    -1.5351 C.ar    
  17 C17            5.5948     9.5357    -1.6841 C.ar    
  18 N18            4.4712    10.1900    -1.3551 N.ar    
  19 C19            3.4277     9.5348    -0.9045 C.ar    
  20 N20            3.4127     8.2201    -0.7540 N.ar    
  21 C21            6.7929     7.4247    -1.8717 C.ar    
  22 C22            7.8780     8.1056    -2.3398 C.ar    
  23 C23            7.8449     9.4895    -2.4865 C.ar    
  24 C24            6.7282    10.2034    -2.1679 C.ar    
  25 C25            9.1301     7.3495    -2.7026 C.3     
  26 H26           -0.8375     1.5840    -1.3775 H       
  27 H27            1.1310     3.0351    -0.9369 H       
  28 H28            3.2914    -0.4695     0.2275 H       
  29 H29           -1.5922    -1.1782    -0.1640 H       
  30 H30           -1.5992    -0.6621    -1.8675 H       
  31 H31           -0.6469    -2.0818    -1.3716 H       
  32 H32            2.3142     3.8372     0.1487 H       
  33 H33            4.1889     3.9749     1.7463 H       
  34 H34            5.3563     3.9176     0.4029 H       
  35 H35            3.2448     6.0775     0.8456 H       
  36 H36            4.9904     6.2503     1.1465 H       
  37 H37            2.4358     5.8180    -1.4117 H       
  38 H38            3.5873     5.8003    -2.7687 H       
  39 H39            4.5060     3.6449    -1.9696 H       
  40 H40            2.7538     3.5146    -2.2582 H       
  41 H41            2.5394    10.0932    -0.6488 H       
  42 H42            6.8304     6.3510    -1.7614 H       
  43 H43            8.7174    10.0056    -2.8590 H       
  44 H44            6.7169    11.2767    -2.2873 H       
  45 H45            9.0866     7.0566    -3.7516 H       
  46 H46            9.9994     7.9863    -2.5389 H       
  47 H47            9.2099     6.4586    -2.0797 H       
@<TRIPOS>BOND
   1    1    2 ar
   2    1    6 ar
   3    2    3 ar
   4    2    7 1
   5    3    4 ar
   6    3   26 1
   7    4    5 ar
   8    4   27 1
   9    5    6 ar
  10    5    8 1
  11    6   28 1
  12    7   29 1
  13    7   30 1
  14    7   31 1
  15    8    9 1
  16    9   10 1
  17    9   14 1
  18    9   32 1
  19   10   11 1
  20   10   33 1
  21   10   34 1
  22   11   12 1
  23   11   35 1
  24   11   36 1
  25   12   13 1
  26   12   15 1
  27   13   14 1
  28   13   37 1
  29   13   38 1
  30   14   39 1
  31   14   40 1
  32   15   16 ar
  33   15   20 ar
  34   16   17 ar
  35   16   21 ar
  36   17   18 ar
  37   17   24 ar
  38   18   19 ar
  39   19   20 ar
  40   19   41 1
  41   21   22 ar
  42   21   42 1
  43   22   23 ar
  44   22   25 1
  45   23   24 ar
  46   23   43 1
  47   24   44 1
  48   25   45 1
  49   25   46 1
  50   25   47 1

#	End of record

