#	Name: ASD09116438
#	Creating user name:	WinNT
#	Creation time:	15. 06. 2019 21:21

#	Modifying user name:	WinNT
#	Modification time:	15. 06. 2019 21:21

#	Program:	/corina/corina34_cracker 3.40 0067  02.08.2006

@<TRIPOS>MOLECULE
ASD09116438
  77   83    0    0    0
SMALL
NO_CHARGES


@<TRIPOS>ATOM
   1 N1             0.7311     0.2258    -0.1670 N.2     
   2 N2             0.9291    -1.0577    -0.7008 N.pl3   
   3 C3             1.8958     0.8286    -0.1774 C.2     
   4 N4             2.8125    -0.0026    -0.6868 N.2     
   5 C5             2.2447    -1.1454    -1.0076 C.2     
   6 N6             2.8793    -2.2416    -1.5602 N.pl3   
   7 C7            -0.0390    -2.0478    -0.8791 C.ar    
   8 N8             2.1397     2.1273     0.2700 N.pl3   
   9 C9             3.4471     2.6191     0.3083 C.ar    
  10 C10            3.6894     3.9699     0.0926 C.ar    
  11 C11            4.5070     1.7593     0.5679 C.ar    
  12 C12            5.7978     2.2488     0.6055 C.ar    
  13 C13            6.0359     3.5931     0.3851 C.ar    
  14 C14            4.9826     4.4527     0.1317 C.ar    
  15 N15            0.1318    -2.9826    -1.8019 N.ar    
  16 N16           -0.7330    -3.9100    -2.0131 N.ar    
  17 C17           -1.8549    -3.9844    -1.3151 C.ar    
  18 C18           -2.1110    -3.0528    -0.3050 C.ar    
  19 C19           -1.1852    -2.0559    -0.0803 C.ar    
  20 C20           -2.8777    -5.0192    -1.5928 C.ar    
  21 C21           -4.2089    -4.6282    -1.7452 C.ar    
  22 C22           -4.5608    -3.1673    -1.6798 C.3     
  23 C23           -4.5722    -2.6612    -0.2399 C.3     
  24 C24           -3.3559    -3.1771     0.5244 C.3     
  25 C25           -2.5306    -6.3616    -1.6978 C.ar    
  26 C26           -3.5116    -7.3050    -1.9345 C.ar    
  27 C27           -4.8324    -6.9157    -2.0643 C.ar    
  28 C28           -5.1810    -5.5795    -1.9688 C.ar    
  29 C29            7.4458     4.1237     0.4275 C.3     
  30 N30            8.0372     4.0501    -0.9152 N.3     
  31 C31            9.3166     4.7712    -0.9674 C.3     
  32 C32            9.9370     4.6041    -2.3565 C.3     
  33 N33            9.0054     5.1163    -3.3711 N.3     
  34 C34            7.7260     4.3952    -3.3189 C.3     
  35 C35            7.1055     4.5623    -1.9298 C.3     
  36 C36            9.5968     5.0427    -4.7138 C.3     
  37 C37            8.6162     5.6126    -5.7536 C.3     
  38 C38            9.3243     6.8124    -6.4159 C.3     
  39 C39           10.8320     6.5288    -6.2026 C.3     
  40 C40           10.8666     5.9161    -4.7805 C.3     
  41 H41            3.8309    -2.2088    -1.7456 H       
  42 H42            2.3732    -3.0440    -1.7627 H       
  43 H43            1.4017     2.6888     0.5545 H       
  44 H44            2.8673     4.6417    -0.1058 H       
  45 H45            4.3217     0.7094     0.7405 H       
  46 H46            6.6222     1.5811     0.8076 H       
  47 H47            5.1721     5.5020    -0.0400 H       
  48 H48           -1.3441    -1.3047     0.6792 H       
  49 H49           -3.8282    -2.5981    -2.2520 H       
  50 H50           -5.5476    -3.0182    -2.1180 H       
  51 H51           -4.5587    -1.5713    -0.2425 H       
  52 H52           -5.4799    -3.0069     0.2547 H       
  53 H53           -3.5120    -4.2247     0.7817 H       
  54 H54           -3.2358    -2.5980     1.4400 H       
  55 H55           -1.4992    -6.6651    -1.5952 H       
  56 H56           -3.2466    -8.3486    -2.0188 H       
  57 H57           -5.5962    -7.6585    -2.2407 H       
  58 H58           -6.2143    -5.2823    -2.0702 H       
  59 H59            7.4338     5.1608     0.7629 H       
  60 H60            8.0387     3.5250     1.1189 H       
  61 H61            9.1459     5.8295    -0.7703 H       
  62 H62            9.9936     4.3655    -0.2156 H       
  63 H63           10.8721     5.1620    -2.4066 H       
  64 H64           10.1329     3.5481    -2.5427 H       
  65 H65            7.0490     4.8009    -4.0707 H       
  66 H66            7.8967     3.3369    -3.5160 H       
  67 H67            6.1705     4.0044    -1.8797 H       
  68 H68            6.9097     5.6183    -1.7436 H       
  69 H69            9.8407     4.0087    -4.9579 H       
  70 H70            8.3848     4.8555    -6.5029 H       
  71 H71            7.7014     5.9437    -5.2620 H       
  72 H72            9.0906     6.8535    -7.4798 H       
  73 H73            9.0380     7.7427    -5.9253 H       
  74 H74           11.1988     5.8147    -6.9399 H       
  75 H75           11.4079     7.4535    -6.2391 H       
  76 H76           10.8294     6.7017    -4.0257 H       
  77 H77           11.7586     5.3032    -4.6508 H       
@<TRIPOS>BOND
   1    1    2 1
   2    1    3 2
   3    2    7 1
   4    2    5 1
   5    3    4 1
   6    3    8 1
   7    4    5 2
   8    5    6 1
   9    6   41 1
  10    6   42 1
  11    7   15 ar
  12    7   19 ar
  13    8    9 1
  14    8   43 1
  15    9   10 ar
  16    9   11 ar
  17   10   14 ar
  18   10   44 1
  19   11   12 ar
  20   11   45 1
  21   12   13 ar
  22   12   46 1
  23   13   14 ar
  24   13   29 1
  25   14   47 1
  26   15   16 ar
  27   16   17 ar
  28   17   18 ar
  29   17   20 1
  30   18   19 ar
  31   18   24 1
  32   19   48 1
  33   20   21 ar
  34   20   25 ar
  35   21   22 1
  36   21   28 ar
  37   22   23 1
  38   22   49 1
  39   22   50 1
  40   23   24 1
  41   23   51 1
  42   23   52 1
  43   24   53 1
  44   24   54 1
  45   25   26 ar
  46   25   55 1
  47   26   27 ar
  48   26   56 1
  49   27   28 ar
  50   27   57 1
  51   28   58 1
  52   29   30 1
  53   29   59 1
  54   29   60 1
  55   30   31 1
  56   30   35 1
  57   31   32 1
  58   31   61 1
  59   31   62 1
  60   32   33 1
  61   32   63 1
  62   32   64 1
  63   33   34 1
  64   33   36 1
  65   34   35 1
  66   34   65 1
  67   34   66 1
  68   35   67 1
  69   35   68 1
  70   36   37 1
  71   36   40 1
  72   36   69 1
  73   37   38 1
  74   37   70 1
  75   37   71 1
  76   38   39 1
  77   38   72 1
  78   38   73 1
  79   39   40 1
  80   39   74 1
  81   39   75 1
  82   40   76 1
  83   40   77 1

#	End of record

