#	Name: ASD06660123
#	Creating user name:	WinNT
#	Creation time:	15. 06. 2019 21:08

#	Modifying user name:	WinNT
#	Modification time:	15. 06. 2019 21:08

#	Program:	/corina/corina34_cracker 3.40 0067  02.08.2006

@<TRIPOS>MOLECULE
ASD06660123
  75   78    0    0    0
SMALL
NO_CHARGES


@<TRIPOS>ATOM
   1 C1             0.3909     1.5899    -1.4572 C.2     
   2 C2             0.3103     0.1103    -1.1830 C.3     
   3 C3            -0.3339    -0.5955    -2.3778 C.3     
   4 O4             1.4647     2.1437    -1.4738 O.2     
   5 O5            -0.7297     2.2916    -1.6885 O.3     
   6 C6            -0.5268    -2.0549    -2.0551 C.ar    
   7 C7            -1.7020    -2.4812    -1.4640 C.ar    
   8 C8            -1.8819    -3.8179    -1.1669 C.ar    
   9 C9            -0.8808    -4.7344    -1.4624 C.ar    
  10 C10            0.2985    -4.3027    -2.0562 C.ar    
  11 C11            0.4696    -2.9654    -2.3558 C.ar    
  12 N12           -1.0593    -6.0869    -1.1629 N.3     
  13 C13            0.1166    -6.8729    -1.5574 C.3     
  14 C14           -0.1703    -8.3618    -1.3498 C.3     
  15 C15           -0.5037    -8.6117     0.1236 C.3     
  16 C16           -1.7015    -7.7451     0.5219 C.3     
  17 C17           -1.3702    -6.2741     0.2601 C.3     
  18 C18           -0.8509   -10.0880     0.3260 C.3     
  19 N19           -1.0530   -10.3510     1.7529 N.pl3   
  20 C20           -1.3799   -11.6313     2.1842 C.ar    
  21 C21           -1.5137   -12.6586     1.2554 C.ar    
  22 C22           -1.8393   -13.9276     1.6983 C.ar    
  23 C23           -2.0210   -14.1278     3.0606 C.ar    
  24 C24           -1.8726   -13.0630     3.9261 C.ar    
  25 N25           -1.5560   -11.8636     3.4757 N.ar    
  26 C26            2.2243    -0.3567     0.2508 C.2     
  27 C27            3.5873    -0.8938     0.4652 C.ar    
  28 C28            3.7604    -2.2270     0.8401 C.ar    
  29 C29            5.0281    -2.7282     1.0394 C.ar    
  30 C30            6.1416    -1.9007     0.8659 C.ar    
  31 C31            5.9669    -0.5654     0.4903 C.ar    
  32 C32            4.6983    -0.0681     0.2865 C.ar    
  33 O33            1.6154     0.1424     1.1765 O.2     
  34 N34            1.6589    -0.4212    -0.9709 N.am    
  35 C35            7.4984    -2.4355     1.0793 C.2     
  36 O36            7.7206    -3.6137     0.9006 O.2     
  37 C37            8.6095    -1.5175     1.5195 C.3     
  38 F38            9.5673    -1.4243     0.5041 F       
  39 F39            8.0870    -0.2473     1.7858 F       
  40 F40            9.2055    -2.0286     2.6774 F       
  41 C41            4.5099     1.3695    -0.1245 C.3     
  42 C42            2.5599    -3.1186     1.0275 C.3     
  43 H43           -0.2924    -0.0617    -0.2912 H       
  44 H44           -1.3009    -0.1397    -2.5910 H       
  45 H45            0.3134    -0.4986    -3.2494 H       
  46 H46           -0.6277     3.2379    -1.8595 H       
  47 H47           -2.4798    -1.7681    -1.2341 H       
  48 H48           -2.7999    -4.1502    -0.7049 H       
  49 H49            1.0788    -5.0126    -2.2873 H       
  50 H50            1.3843    -2.6298    -2.8218 H       
  51 H51            0.3404    -6.6893    -2.6082 H       
  52 H52            0.9710    -6.5793    -0.9476 H       
  53 H53           -1.0159    -8.6593    -1.9698 H       
  54 H54            0.7083    -8.9439    -1.6279 H       
  55 H55            0.3560    -8.3508     0.7409 H       
  56 H56           -2.5713    -8.0329    -0.0687 H       
  57 H57           -1.9170    -7.8866     1.5810 H       
  58 H58           -0.5089    -5.9833     0.8613 H       
  59 H59           -2.2264    -5.6555     0.5292 H       
  60 H60           -1.7641   -10.3246    -0.2200 H       
  61 H61           -0.0346   -10.7075    -0.0456 H       
  62 H62           -0.9587    -9.6316     2.3968 H       
  63 H63           -1.3656   -12.4675     0.2028 H       
  64 H64           -1.9501   -14.7445     1.0006 H       
  65 H65           -2.2762   -15.1067     3.4388 H       
  66 H66           -2.0130   -13.2143     4.9862 H       
  67 H67            5.1617    -3.7598     1.3299 H       
  68 H68            6.8262     0.0749     0.3563 H       
  69 H69            2.1450    -0.8196    -1.7098 H       
  70 H70            4.4180     1.9926     0.7651 H       
  71 H71            5.3698     1.6958    -0.7094 H       
  72 H72            3.6056     1.4598    -0.7264 H       
  73 H73            2.3182    -3.6058     0.0829 H       
  74 H74            2.7832    -3.8752     1.7798 H       
  75 H75            1.7103    -2.5198     1.3554 H       
@<TRIPOS>BOND
   1    1    2 1
   2    1    4 2
   3    1    5 1
   4    2    3 1
   5    2   34 1
   6    2   43 1
   7    3    6 1
   8    3   44 1
   9    3   45 1
  10    5   46 1
  11    6    7 ar
  12    6   11 ar
  13    7    8 ar
  14    7   47 1
  15    8    9 ar
  16    8   48 1
  17    9   10 ar
  18    9   12 1
  19   10   11 ar
  20   10   49 1
  21   11   50 1
  22   12   13 1
  23   12   17 1
  24   13   14 1
  25   13   51 1
  26   13   52 1
  27   14   15 1
  28   14   53 1
  29   14   54 1
  30   15   16 1
  31   15   18 1
  32   15   55 1
  33   16   17 1
  34   16   56 1
  35   16   57 1
  36   17   58 1
  37   17   59 1
  38   18   19 1
  39   18   60 1
  40   18   61 1
  41   19   20 1
  42   19   62 1
  43   20   21 ar
  44   20   25 ar
  45   21   22 ar
  46   21   63 1
  47   22   23 ar
  48   22   64 1
  49   23   24 ar
  50   23   65 1
  51   24   25 ar
  52   24   66 1
  53   26   27 1
  54   26   33 2
  55   26   34 am
  56   27   28 ar
  57   27   32 ar
  58   28   29 ar
  59   28   42 1
  60   29   30 ar
  61   29   67 1
  62   30   31 ar
  63   30   35 1
  64   31   32 ar
  65   31   68 1
  66   32   41 1
  67   34   69 1
  68   35   36 2
  69   35   37 1
  70   37   38 1
  71   37   39 1
  72   37   40 1
  73   41   70 1
  74   41   71 1
  75   41   72 1
  76   42   73 1
  77   42   74 1
  78   42   75 1

#	End of record

