#	Name: ASD01884846
#	Creating user name:	WinNT
#	Creation time:	15. 06. 2019 19:49

#	Modifying user name:	WinNT
#	Modification time:	15. 06. 2019 19:49

#	Program:	/corina/corina34_cracker 3.40 0067  02.08.2006

@<TRIPOS>MOLECULE
ASD01884846
  51   54    0    0    0
SMALL
NO_CHARGES


@<TRIPOS>ATOM
   1 C1             1.1207     1.3446    -0.2203 C.3     
   2 N2             1.1330    -0.1196    -0.2665 N.pl3   
   3 C3             1.4517    -0.8878     0.9395 C.3     
   4 C4             0.1840    -1.1739     1.7024 C.ar    
   5 C5            -0.2782    -0.2923     2.6669 C.ar    
   6 N6            -1.3953    -0.5768     3.3167 N.ar    
   7 C7            -2.0653    -1.6814     3.0562 C.ar    
   8 C8            -3.3333    -1.9673     3.8188 C.3     
   9 N9            -1.6562    -2.5426     2.1462 N.ar    
  10 C10           -0.5510    -2.3221     1.4525 C.ar    
  11 C11            0.8406    -0.7839    -1.4618 C.ar    
  12 C12            0.8471    -2.1768    -1.5028 C.ar    
  13 C13            0.5609    -2.8458    -2.6716 C.ar    
  14 C14            0.2610    -2.1320    -3.8289 C.ar    
  15 N15           -0.0276    -2.7956    -5.0051 N.pl3   
  16 C16           -0.3229    -2.1554    -6.1456 C.2     
  17 C17           -0.3600    -0.7784    -6.2272 C.2     
  18 C18           -0.6889    -0.1135    -7.4977 C.2     
  19 N19           -0.8292     1.2263    -7.5406 N.am    
  20 O20           -0.8342    -0.7729    -8.5095 O.2     
  21 C21           -0.0660     0.0139    -5.0232 C.2     
  22 O22           -0.0865     1.2323    -5.0447 O.2     
  23 C23            0.2541    -0.7272    -3.7889 C.ar    
  24 C24            0.5398    -0.0568    -2.6003 C.ar    
  25 C25           -0.0107    -4.1955    -5.0069 C.ar    
  26 C26           -0.9803    -4.9035    -4.3086 C.ar    
  27 C27           -0.9621    -6.2843    -4.3121 C.ar    
  28 C28            0.0221    -6.9631    -5.0111 C.ar    
  29 F29            0.0381    -8.3140    -5.0132 F       
  30 C30            0.9896    -6.2590    -5.7084 C.ar    
  31 C31            0.9723    -4.8782    -5.7115 C.ar    
  32 H32            2.1136     1.7241    -0.4616 H       
  33 H33            0.4005     1.7250    -0.9447 H       
  34 H34            0.8389     1.6742     0.7797 H       
  35 H35            1.9256    -1.8279     0.6568 H       
  36 H36            2.1318    -0.3125     1.5676 H       
  37 H37            0.2663     0.6145     2.8854 H       
  38 H38           -4.1820    -1.5379     3.2865 H       
  39 H39           -3.4682    -3.0452     3.9085 H       
  40 H40           -3.2667    -1.5255     4.8130 H       
  41 H41           -0.2239    -3.0293     0.7047 H       
  42 H42            1.0792    -2.7370    -0.6091 H       
  43 H43            0.5695    -3.9256    -2.6909 H       
  44 H44           -0.5385    -2.7368    -7.0298 H       
  45 H45           -0.7856     1.7449    -6.7221 H       
  46 H46           -0.9737     1.6718    -8.3900 H       
  47 H47            0.5303     1.0227    -2.5692 H       
  48 H48           -1.7478    -4.3746    -3.7631 H       
  49 H49           -1.7157    -6.8353    -3.7690 H       
  50 H50            1.7563    -6.7903    -6.2529 H       
  51 H51            1.7247    -4.3296    -6.2585 H       
@<TRIPOS>BOND
   1    1    2 1
   2    1   32 1
   3    1   33 1
   4    1   34 1
   5    2    3 1
   6    2   11 1
   7    3    4 1
   8    3   35 1
   9    3   36 1
  10    4   10 ar
  11    4    5 ar
  12    5    6 ar
  13    5   37 1
  14    6    7 ar
  15    7    8 1
  16    7    9 ar
  17    8   38 1
  18    8   39 1
  19    8   40 1
  20    9   10 ar
  21   10   41 1
  22   11   24 ar
  23   11   12 ar
  24   12   13 ar
  25   12   42 1
  26   13   14 ar
  27   13   43 1
  28   14   23 ar
  29   14   15 1
  30   15   16 1
  31   15   25 1
  32   16   17 2
  33   16   44 1
  34   17   18 1
  35   17   21 1
  36   18   19 am
  37   18   20 2
  38   19   45 1
  39   19   46 1
  40   21   22 2
  41   21   23 1
  42   23   24 ar
  43   24   47 1
  44   25   31 ar
  45   25   26 ar
  46   26   27 ar
  47   26   48 1
  48   27   28 ar
  49   27   49 1
  50   28   29 1
  51   28   30 ar
  52   30   31 ar
  53   30   50 1
  54   31   51 1

#	End of record

