#	Name: ASD03240399
#	Creating user name:	WinNT
#	Creation time:	15. 06. 2019 20:34

#	Modifying user name:	WinNT
#	Modification time:	15. 06. 2019 20:34

#	Program:	/corina/corina34_cracker 3.40 0067  02.08.2006

@<TRIPOS>MOLECULE
ASD03240399
  30   31    0    0    0
SMALL
NO_CHARGES


@<TRIPOS>ATOM
   1 C1            -0.0167     1.3793     0.0096 C.ar    
   2 C2             0.0021    -0.0041     0.0020 C.ar    
   3 C3            -1.1855    -0.7111     0.0100 C.ar    
   4 C4            -2.3919    -0.0362     0.0252 C.ar    
   5 C5            -2.4113     1.3460     0.0328 C.ar    
   6 C6            -1.2243     2.0541     0.0306 C.ar    
   7 C7            -3.9587    -1.9518     2.2422 C.ar    
   8 C8            -4.2311    -0.8609     1.4371 C.ar    
   9 C9            -3.6865    -0.8077     0.0329 C.3     
  10 C10           -4.4575    -2.0030     3.5301 C.ar    
  11 C11           -5.2327    -0.9578     4.0148 C.ar    
  12 C12           -5.5035     0.1347     3.2049 C.ar    
  13 C13           -5.0026     0.1805     1.9177 C.ar    
  14 O14           -4.6320    -0.1601    -0.8206 O.3     
  15 O15           -5.7250    -1.0055     5.2808 O.3     
  16 C16           -6.5143     0.1049     5.7122 C.3     
  17 Cl17           1.4746     2.2680     0.0002 Cl      
  18 Cl18          -4.1160    -3.3727     4.5405 Cl      
  19 H19            0.9445    -0.5314    -0.0105 H       
  20 H20           -1.1710    -1.7910     0.0041 H       
  21 H21           -3.3541     1.8727     0.0447 H       
  22 H22           -1.2396     3.1340     0.0368 H       
  23 H23           -3.3594    -2.7663     1.8628 H       
  24 H24           -3.5076    -1.8213    -0.3260 H       
  25 H25           -6.1064     0.9487     3.5794 H       
  26 H26           -5.2138     1.0312     1.2868 H       
  27 H27           -4.8394     0.7479    -0.5604 H       
  28 H28           -5.9172     1.0155     5.6643 H       
  29 H29           -7.3842     0.2063     5.0633 H       
  30 H30           -6.8436    -0.0601     6.7381 H       
@<TRIPOS>BOND
   1    1    2 ar
   2    1   17 1
   3    1    6 ar
   4    2    3 ar
   5    2   19 1
   6    3    4 ar
   7    3   20 1
   8    4    5 ar
   9    4    9 1
  10    5    6 ar
  11    5   21 1
  12    6   22 1
  13    7    8 ar
  14    7   10 ar
  15    7   23 1
  16    8    9 1
  17    8   13 ar
  18    9   14 1
  19    9   24 1
  20   10   11 ar
  21   10   18 1
  22   11   12 ar
  23   11   15 1
  24   12   13 ar
  25   12   25 1
  26   13   26 1
  27   14   27 1
  28   15   16 1
  29   16   28 1
  30   16   29 1
  31   16   30 1

#	End of record

