#	Name: ASD05430178
#	Creating user name:	WinNT
#	Creation time:	15. 06. 2019 20:59

#	Modifying user name:	WinNT
#	Modification time:	15. 06. 2019 20:59

#	Program:	/corina/corina34_cracker 3.40 0067  02.08.2006

@<TRIPOS>MOLECULE
ASD05430178
  64   70    0    0    0
SMALL
NO_CHARGES


@<TRIPOS>ATOM
   1 C1            -0.0168     1.3884     0.0097 C.ar    
   2 C2             0.0021    -0.0041     0.0020 C.ar    
   3 C3            -1.1916    -0.7102     0.0096 C.ar    
   4 C4            -2.3954    -0.0318     0.0247 C.ar    
   5 C5            -2.4137     1.3509     0.0323 C.ar    
   6 C6            -1.2281     2.0614     0.0306 C.ar    
   7 C7            -4.2427     0.8899    -2.2313 C.3     
   8 C8            -4.6852     1.8439    -1.1145 C.3     
   9 C9            -3.7297     2.0850     0.0487 C.3     
  10 C10           -5.4301     0.6733    -3.1791 C.3     
  11 C11           -5.9773     1.9402    -3.8477 C.3     
  12 N12           -6.1754     2.9668    -2.8267 N.pl3   
  13 C13           -5.5215     3.0041    -1.6044 C.2     
  14 N14           -5.7238     4.1257    -1.0178 N.2     
  15 C15           -8.4860     3.7059    -2.5134 C.2     
  16 C16           -9.4374     4.5005    -1.9910 C.2     
  17 N17            1.2260    -0.6911    -0.0138 N.pl3   
  18 C18           -4.9999     1.2554     0.2558 C.3     
  19 C19            2.2653    -0.4693    -0.8592 C.2     
  20 C20            1.6000    -1.7086     0.8251 C.2     
  21 C21            2.8443    -2.0752     0.4630 C.2     
  22 N22            3.2254    -1.3036    -0.5656 N.2     
  23 C23            3.6679    -3.1613     1.1057 C.3     
  24 O24            1.1502     2.0857     0.0023 O.3     
  25 C25           -5.4589    -0.6226    -3.9892 C.3     
  26 C26           -6.4285    -0.4269    -2.8215 C.3     
  27 C27           -7.0772     4.1219    -2.8499 C.3     
  28 O28           -6.5355     4.9729    -1.8180 O.3     
  29 C29           -7.0308     4.8182    -4.2115 C.3     
  30 C30            1.0540     3.5115     0.0109 C.3     
  31 C31          -10.5966     3.7056    -1.8382 C.2     
  32 C32          -10.2843     2.4728    -2.2765 C.2     
  33 O33           -9.0029     2.4774    -2.6788 O.3     
  34 C34          -11.2125     1.2860    -2.3044 C.3     
  35 F35          -11.8893     1.2520    -3.5283 F       
  36 F36          -10.4708     0.1101    -2.1489 F       
  37 F37          -12.1392     1.3941    -1.2619 F       
  38 H38           -1.1803    -1.7902     0.0033 H       
  39 H39           -3.3242    -0.5829     0.0302 H       
  40 H40           -1.2458     3.1412     0.0366 H       
  41 H41           -3.4095     1.3285    -2.7804 H       
  42 H42           -3.9378    -0.0638    -1.8004 H       
  43 H43           -3.7049     3.0853     0.4810 H       
  44 H44           -5.2647     2.2975    -4.5911 H       
  45 H45           -6.9290     1.7165    -4.3299 H       
  46 H46           -9.3351     5.5451    -1.7364 H       
  47 H47           -5.8109     1.7099     0.8249 H       
  48 H48           -4.8834     0.1788     0.3803 H       
  49 H49            2.2927     0.2727    -1.6434 H       
  50 H50            1.0102    -2.1343     1.6234 H       
  51 H51            3.4733    -4.1095     0.6045 H       
  52 H52            4.7260    -2.9147     1.0185 H       
  53 H53            3.4000    -3.2454     2.1589 H       
  54 H54           -5.8697    -0.5767    -4.9977 H       
  55 H55           -4.6357    -1.3229    -3.8479 H       
  56 H56           -6.2432    -0.9986    -1.9122 H       
  57 H57           -7.4773    -0.2524    -3.0620 H       
  58 H58           -7.3364     4.1175    -4.9885 H       
  59 H59           -7.7076     5.6726    -4.2059 H       
  60 H60           -6.0152     5.1606    -4.4100 H       
  61 H61            0.5084     3.8441    -0.8722 H       
  62 H62            0.5254     3.8346     0.9077 H       
  63 H63            2.0548     3.9432     0.0036 H       
  64 H64          -11.5498     4.0266    -1.4449 H       
@<TRIPOS>BOND
   1    1    2 ar
   2    1   24 1
   3    1    6 ar
   4    2    3 ar
   5    2   17 1
   6    3    4 ar
   7    3   38 1
   8    4    5 ar
   9    4   39 1
  10    5    6 ar
  11    5    9 1
  12    6   40 1
  13    7    8 1
  14    7   10 1
  15    7   41 1
  16    7   42 1
  17    8    9 1
  18    8   18 1
  19    8   13 1
  20    9   18 1
  21    9   43 1
  22   10   11 1
  23   10   25 1
  24   10   26 1
  25   11   12 1
  26   11   44 1
  27   11   45 1
  28   12   13 1
  29   12   27 1
  30   13   14 2
  31   14   28 1
  32   15   16 2
  33   15   27 1
  34   15   33 1
  35   16   31 1
  36   16   46 1
  37   17   19 1
  38   17   20 1
  39   18   47 1
  40   18   48 1
  41   19   22 2
  42   19   49 1
  43   20   21 2
  44   20   50 1
  45   21   22 1
  46   21   23 1
  47   23   51 1
  48   23   52 1
  49   23   53 1
  50   24   30 1
  51   25   26 1
  52   25   54 1
  53   25   55 1
  54   26   56 1
  55   26   57 1
  56   27   28 1
  57   27   29 1
  58   29   58 1
  59   29   59 1
  60   29   60 1
  61   30   61 1
  62   30   62 1
  63   30   63 1
  64   31   32 2
  65   31   64 1
  66   32   33 1
  67   32   34 1
  68   34   35 1
  69   34   36 1
  70   34   37 1

#	End of record

