#	Name: ASD02500638
#	Creating user name:	WinNT
#	Creation time:	15. 06. 2019 20:23

#	Modifying user name:	WinNT
#	Modification time:	15. 06. 2019 20:23

#	Program:	/corina/corina34_cracker 3.40 0067  02.08.2006

@<TRIPOS>MOLECULE
ASD02500638
  71   75    0    0    0
SMALL
NO_CHARGES


@<TRIPOS>ATOM
   1 N1            -4.0386     5.5309    -2.1433 N.ar    
   2 C2            -4.9742     6.1424    -2.8282 C.ar    
   3 C3            -6.2839     6.2332    -2.3614 C.ar    
   4 C4            -6.6198     5.6758    -1.1607 C.ar    
   5 C5            -5.6126     5.0195    -0.4281 C.ar    
   6 C6            -5.8825     4.4233     0.8139 C.ar    
   7 C7            -4.8808     3.7981     1.4921 C.ar    
   8 C8            -3.5903     3.7425     0.9700 C.ar    
   9 C9            -3.2936     4.3098    -0.2311 C.ar    
  10 C10           -4.3007     4.9642    -0.9612 C.ar    
  11 S11           -1.6528     4.2252    -0.8678 S.o2    
  12 O12           -1.2934     5.5519    -1.2284 O.2     
  13 O13           -0.9057     3.4402     0.0514 O.2     
  14 N14           -1.7181     3.3588    -2.2776 N.am    
  15 C15           -2.0254     2.0005    -2.2467 C.ar    
  16 C16           -1.4072     1.1254    -3.1424 C.ar    
  17 C17           -1.7111    -0.2202    -3.1124 C.ar    
  18 C18           -2.6384    -0.7044    -2.1841 C.ar    
  19 C19           -3.2536     0.1759    -1.2905 C.ar    
  20 C20           -2.9426     1.5175    -1.3207 C.ar    
  21 C21           -2.9666    -2.1423    -2.1489 C.2     
  22 O22           -3.1094    -2.7589    -3.1871 O.2     
  23 N23           -3.1082    -2.7723    -0.9659 N.am    
  24 C24           -3.3240    -4.2260    -0.9059 C.3     
  25 C25           -2.3078    -4.8291     0.0697 C.3     
  26 N26           -2.4004    -4.1337     1.3603 N.3     
  27 C27           -2.0455    -2.7144     1.2274 C.3     
  28 C28           -3.0449    -2.0255     0.2995 C.3     
  29 C29           -1.5662    -4.7923     2.3743 C.3     
  30 C30           -1.6189    -3.9912     3.6768 C.3     
  31 C31           -3.0567    -3.9607     4.1988 C.3     
  32 C32           -0.7258    -4.6406     4.7023 C.ar    
  33 C33            0.3317    -3.9343     5.2443 C.ar    
  34 C34            1.1510    -4.5299     6.1850 C.ar    
  35 C35            0.9125    -5.8318     6.5840 C.ar    
  36 C36           -0.1456    -6.5378     6.0427 C.ar    
  37 C37           -0.9674    -5.9407     5.1052 C.ar    
  38 O38           -0.5062     1.5995    -4.0443 O.3     
  39 C39            0.0873     0.6479    -4.9299 C.3     
  40 H40           -4.7231     6.5879    -3.7794 H       
  41 H41           -7.0327     6.7442    -2.9485 H       
  42 H42           -7.6300     5.7370    -0.7836 H       
  43 H43           -6.8788     4.4605     1.2292 H       
  44 H44           -5.0893     3.3397     2.4474 H       
  45 H45           -2.8128     3.2414     1.5275 H       
  46 H46           -1.5424     3.7972    -3.1248 H       
  47 H47           -1.2341    -0.8982    -3.8047 H       
  48 H48           -3.9699    -0.1963    -0.5730 H       
  49 H49           -3.4157     2.1961    -0.6263 H       
  50 H50           -4.3352    -4.4318    -0.5550 H       
  51 H51           -3.1820    -4.6584    -1.8963 H       
  52 H52           -2.5235    -5.8882     0.2109 H       
  53 H53           -1.3023    -4.7131    -0.3347 H       
  54 H54           -2.0710    -2.2397     2.2083 H       
  55 H55           -1.0436    -2.6278     0.8070 H       
  56 H56           -2.7184    -1.0037     0.1057 H       
  57 H57           -4.0288    -2.0157     0.7686 H       
  58 H58           -1.9393    -5.8008     2.5526 H       
  59 H59           -0.5364    -4.8431     2.0204 H       
  60 H60           -1.2780    -2.9727     3.4910 H       
  61 H61           -3.0943    -3.3900     5.1268 H       
  62 H62           -3.7027    -3.4910     3.4571 H       
  63 H63           -3.3975    -4.9792     4.3846 H       
  64 H64            0.5180    -2.9172     4.9325 H       
  65 H65            1.9776    -3.9783     6.6079 H       
  66 H66            1.5530    -6.2974     7.3185 H       
  67 H67           -0.3317    -7.5550     6.3543 H       
  68 H68           -1.7963    -6.4910     4.6850 H       
  69 H69            0.7847     1.1566    -5.5954 H       
  70 H70            0.6217    -0.1044    -4.3497 H       
  71 H71           -0.6919     0.1656    -5.5201 H       
@<TRIPOS>BOND
   1    1    2 ar
   2    1   10 ar
   3    2    3 ar
   4    2   40 1
   5    3    4 ar
   6    3   41 1
   7    4    5 ar
   8    4   42 1
   9    5    6 ar
  10    5   10 ar
  11    6    7 ar
  12    6   43 1
  13    7    8 ar
  14    7   44 1
  15    8    9 ar
  16    8   45 1
  17    9   10 ar
  18    9   11 1
  19   11   12 2
  20   11   13 2
  21   11   14 am
  22   14   15 1
  23   14   46 1
  24   15   16 ar
  25   15   20 ar
  26   16   17 ar
  27   16   38 1
  28   17   18 ar
  29   17   47 1
  30   18   19 ar
  31   18   21 1
  32   19   20 ar
  33   19   48 1
  34   20   49 1
  35   21   22 2
  36   21   23 am
  37   23   24 1
  38   23   28 1
  39   24   25 1
  40   24   50 1
  41   24   51 1
  42   25   26 1
  43   25   52 1
  44   25   53 1
  45   26   27 1
  46   26   29 1
  47   27   28 1
  48   27   54 1
  49   27   55 1
  50   28   56 1
  51   28   57 1
  52   29   30 1
  53   29   58 1
  54   29   59 1
  55   30   31 1
  56   30   32 1
  57   30   60 1
  58   31   61 1
  59   31   62 1
  60   31   63 1
  61   32   33 ar
  62   32   37 ar
  63   33   34 ar
  64   33   64 1
  65   34   35 ar
  66   34   65 1
  67   35   36 ar
  68   35   66 1
  69   36   37 ar
  70   36   67 1
  71   37   68 1
  72   38   39 1
  73   39   69 1
  74   39   70 1
  75   39   71 1

#	End of record

