#	Name: ASD01918135
#	Creating user name:	WinNT
#	Creation time:	15. 06. 2019 20:10

#	Modifying user name:	WinNT
#	Modification time:	15. 06. 2019 20:10

#	Program:	/corina/corina34_cracker 3.40 0067  02.08.2006

@<TRIPOS>MOLECULE
ASD01918135
  39   42    0    0    0
SMALL
NO_CHARGES


@<TRIPOS>ATOM
   1 N1             4.8434    -0.3810    -2.1579 N.ar    
   2 C2             5.3061     0.3128    -3.1766 C.ar    
   3 C3             5.1835     1.7035    -3.2061 C.ar    
   4 C4             4.5591     2.3509    -2.1339 C.ar    
   5 C5             4.0871     1.5752    -1.0828 C.ar    
   6 C6             4.2500     0.1972    -1.1316 C.ar    
   7 O7             3.4742     2.1581    -0.0191 O.3     
   8 C8             3.4422     3.5170     0.0338 C.2     
   9 N9             2.1715     5.5210    -0.0261 N.pl3   
  10 C10            2.2546     4.1612    -0.0737 C.2     
  11 C11            4.6369     4.2289     0.2044 C.2     
  12 C12            4.5989     5.6166     0.2582 C.2     
  13 C13            3.2997     6.2829     0.1333 C.2     
  14 C14            5.8332     6.3984     0.4369 C.2     
  15 N15            5.7772     7.7440     0.4868 N.am    
  16 O16            6.9037     5.8299     0.5394 O.2     
  17 C17            1.1146     6.3883    -0.1092 C.2     
  18 C18            1.6158     7.6377    -0.0080 C.2     
  19 N19            2.9415     7.5540     0.1446 N.2     
  20 C20            5.6888     2.4551    -4.3154 C.1     
  21 C21            6.9418     8.4816     0.6554 C.2     
  22 N22            6.0896     3.0514    -5.1953 N.1     
  23 S23            8.5087     7.8158     0.8119 S.3     
  24 C24            9.1924     9.4326     0.9611 C.2     
  25 C25            8.1933    10.3134     0.8807 C.2     
  26 N26            6.9997     9.7756     0.7115 N.2     
  27 C27            8.4107    11.8020     0.9694 C.3     
  28 H28            5.7859    -0.1989    -3.9978 H       
  29 H29            4.4476     3.4251    -2.1239 H       
  30 H30            3.8851    -0.4105    -0.3168 H       
  31 H31            1.3515     3.5827    -0.2007 H       
  32 H32            5.5769     3.7046     0.2933 H       
  33 H33            4.9236     8.1973     0.4051 H       
  34 H34            0.0758     6.1227    -0.2384 H       
  35 H35            1.0411     8.5517    -0.0366 H       
  36 H36           10.2376     9.6695     1.0949 H       
  37 H37            8.5833    12.2042    -0.0289 H       
  38 H38            7.5285    12.2728     1.4033 H       
  39 H39            9.2775    12.0057     1.5981 H       
@<TRIPOS>BOND
   1    1    2 ar
   2    1    6 ar
   3    2    3 ar
   4    2   28 1
   5    3    4 ar
   6    3   20 1
   7    4    5 ar
   8    4   29 1
   9    5    6 ar
  10    5    7 1
  11    6   30 1
  12    7    8 1
  13    8   11 1
  14    8   10 2
  15    9   10 1
  16    9   17 1
  17    9   13 1
  18   10   31 1
  19   11   12 2
  20   11   32 1
  21   12   13 1
  22   12   14 1
  23   13   19 2
  24   14   15 am
  25   14   16 2
  26   15   21 1
  27   15   33 1
  28   17   18 2
  29   17   34 1
  30   18   19 1
  31   18   35 1
  32   20   22 3
  33   21   23 1
  34   21   26 2
  35   23   24 1
  36   24   25 2
  37   24   36 1
  38   25   26 1
  39   25   27 1
  40   27   37 1
  41   27   38 1
  42   27   39 1

#	End of record

