#	Name: ASD01813535
#	Creating user name:	WinNT
#	Creation time:	15. 06. 2019 19:30

#	Modifying user name:	WinNT
#	Modification time:	15. 06. 2019 19:30

#	Program:	/corina/corina34_cracker 3.40 0067  02.08.2006

@<TRIPOS>MOLECULE
ASD01813535
  50   53    0    0    0
SMALL
NO_CHARGES


@<TRIPOS>ATOM
   1 C1            -0.0178     1.4608     0.0101 C.3     
   2 N2             0.0021    -0.0041     0.0020 N.pl3   
   3 C3             0.0078    -0.7920    -1.0936 C.2     
   4 C4             0.0272    -2.0789    -0.6760 C.2     
   5 C5             0.0405    -3.2983    -1.5614 C.3     
   6 N6             1.4259    -3.6744    -1.8538 N.pl3   
   7 C7             2.1148    -3.2914    -2.9555 C.2     
   8 C8             3.3739    -3.8137    -2.9167 C.2     
   9 C9             4.4313    -3.6350    -3.9207 C.2     
  10 O10            5.5171    -4.1602    -3.7608 O.2     
  11 N11            4.1986    -2.8893    -5.0190 N.am    
  12 C12            5.2531    -2.7111    -6.0203 C.3     
  13 H13            6.2222    -2.6661    -5.5233 H       
  14 C14            5.2346    -3.8897    -6.9958 C.3     
  15 C15            6.3359    -3.7036    -8.0415 C.3     
  16 C16            6.0955    -2.4022    -8.8092 C.3     
  17 C17            6.1140    -1.2236    -7.8337 C.3     
  18 C18            5.0128    -1.4097    -6.7881 C.3     
  19 H19            4.0437    -1.4548    -7.2850 H       
  20 O20            5.0301    -0.3090    -5.8769 O.3     
  21 C21            3.4648    -4.5932    -1.6683 C.ar    
  22 C22            4.4723    -5.3494    -1.0699 C.ar    
  23 F23            5.6773    -5.4700    -1.6687 F       
  24 C24            4.2324    -5.9735     0.1371 C.ar    
  25 C25            2.9960    -5.8515     0.7543 C.ar    
  26 C26            1.9906    -5.1068     0.1728 C.ar    
  27 F27            0.7911    -4.9959     0.7844 F       
  28 C28            2.2156    -4.4642    -1.0426 C.ar    
  29 C29            0.0335    -2.0775     0.7227 C.2     
  30 N30            0.0246    -0.8342     1.1302 N.2     
  31 H31            1.0048     1.8381     0.0023 H       
  32 H32           -0.5450     1.8219    -0.8730 H       
  33 H33           -0.5280     1.8123     0.9069 H       
  34 H34           -0.0017    -0.4556    -2.1198 H       
  35 H35           -0.4600    -4.1222    -1.0527 H       
  36 H36           -0.4801    -3.0765    -2.4930 H       
  37 H37            1.7254    -2.6670    -3.7460 H       
  38 H38            3.3330    -2.4706    -5.1466 H       
  39 H39            5.4058    -4.8168    -6.4488 H       
  40 H40            4.2655    -3.9347    -7.4928 H       
  41 H41            7.3049    -3.6585    -7.5445 H       
  42 H42            6.3226    -4.5432    -8.7364 H       
  43 H43            6.8800    -2.2696    -9.5542 H       
  44 H44            5.1264    -2.4472    -9.3062 H       
  45 H45            7.0831    -1.1786    -7.3367 H       
  46 H46            5.9428    -0.2965    -8.3807 H       
  47 H47            4.8839     0.5504    -6.2955 H       
  48 H48            5.0104    -6.5599     0.6031 H       
  49 H49            2.8186    -6.3444     1.6987 H       
  50 H50            0.0482    -2.9516     1.3568 H       
@<TRIPOS>BOND
   1    1    2 1
   2    1   31 1
   3    1   32 1
   4    1   33 1
   5    2   30 1
   6    2    3 1
   7    3    4 2
   8    3   34 1
   9    4    5 1
  10    4   29 1
  11    5    6 1
  12    5   35 1
  13    5   36 1
  14    6   28 1
  15    6    7 1
  16    7    8 2
  17    7   37 1
  18    8    9 1
  19    8   21 1
  20    9   10 2
  21    9   11 am
  22   11   12 1
  23   11   38 1
  24   12   13 1
  25   12   18 1
  26   12   14 1
  27   14   15 1
  28   14   39 1
  29   14   40 1
  30   15   16 1
  31   15   41 1
  32   15   42 1
  33   16   17 1
  34   16   43 1
  35   16   44 1
  36   17   18 1
  37   17   45 1
  38   17   46 1
  39   18   19 1
  40   18   20 1
  41   20   47 1
  42   21   28 ar
  43   21   22 ar
  44   22   23 1
  45   22   24 ar
  46   24   25 ar
  47   24   48 1
  48   25   26 ar
  49   25   49 1
  50   26   27 1
  51   26   28 ar
  52   29   30 2
  53   29   50 1

#	End of record

