#	Name: ASD01948285
#	Creating user name:	WinNT
#	Creation time:	15. 06. 2019 20:14

#	Modifying user name:	WinNT
#	Modification time:	15. 06. 2019 20:14

#	Program:	/corina/corina34_cracker 3.40 0067  02.08.2006

@<TRIPOS>MOLECULE
ASD01948285
  48   50    0    0    0
SMALL
NO_CHARGES


@<TRIPOS>ATOM
   1 C1             1.2874     5.1938    -2.0203 C.ar    
   2 C2             1.8867     4.9401    -3.2415 C.ar    
   3 C3             2.9227     4.0283    -3.3307 C.ar    
   4 C4             3.3634     3.3670    -2.2004 C.ar    
   5 C5             2.7657     3.6185    -0.9730 C.ar    
   6 C6             1.7236     4.5362    -0.8853 C.ar    
   7 N7             3.8053     0.6602    -0.0129 N.am    
   8 C8             4.1749     1.9701     0.0695 C.2     
   9 N9             3.2096     2.9500     0.1730 N.pl3   
  10 C10            4.7300    -0.3124    -0.1145 C.2     
  11 C11            6.0910     0.0046    -0.1374 C.2     
  12 C12            6.4855     1.3252    -0.0546 C.2     
  13 C13            5.5127     2.3216     0.0503 C.2     
  14 N14            5.8908     3.6744     0.1356 N.am    
  15 I15            1.2227     5.9389    -4.9591 I       
  16 O16            4.3774    -1.4801    -0.1867 O.2     
  17 F17            1.1393     4.7844     0.3073 F       
  18 C18            2.3839     0.3066     0.0156 C.3     
  19 S19            7.4766     4.1054    -0.0693 S.o2    
  20 O20            7.5291     5.4605     0.3552 O.2     
  21 O21            8.2055     3.0949     0.6140 O.2     
  22 C22            7.7501     3.9879    -1.8587 C.3     
  23 C23            7.1219    -1.0886    -0.2508 C.3     
  24 C24            9.0846     4.6562    -2.2329 C.3     
  25 C25            9.9639     3.5593    -2.8683 C.3     
  26 C26            8.9481     2.5112    -3.3867 C.3     
  27 C27            7.8649     2.5082    -2.2796 C.3     
  28 H28            0.4813     5.9095    -1.9531 H       
  29 H29            3.3878     3.8325    -4.2856 H       
  30 H30            4.1720     2.6547    -2.2718 H       
  31 H31            2.8386     3.1756     1.0404 H       
  32 H32            7.5338     1.5844    -0.0708 H       
  33 H33            5.2226     4.3545     0.3143 H       
  34 H34            1.9715     0.3781    -0.9908 H       
  35 H35            2.2705    -0.7133     0.3831 H       
  36 H36            1.8522     0.9918     0.6757 H       
  37 H37            6.9299     4.4664    -2.3937 H       
  38 H38            6.6218    -2.0557    -0.3037 H       
  39 H39            7.7151    -0.9366    -1.1526 H       
  40 H40            7.7747    -1.0644     0.6218 H       
  41 H41            8.9122     5.4586    -2.9503 H       
  42 H42            9.5680     5.0512    -1.3393 H       
  43 H43           10.5458     3.9678    -3.6945 H       
  44 H44           10.6210     3.1161    -2.1200 H       
  45 H45            8.5242     2.8234    -4.3412 H       
  46 H46            9.4153     1.5302    -3.4728 H       
  47 H47            8.1831     1.8952    -1.4363 H       
  48 H48            6.9151     2.1496    -2.6762 H       
@<TRIPOS>BOND
   1    1    2 ar
   2    1    6 ar
   3    1   28 1
   4    2    3 ar
   5    2   15 1
   6    3    4 ar
   7    3   29 1
   8    4    5 ar
   9    4   30 1
  10    5    6 ar
  11    5    9 1
  12    6   17 1
  13    7    8 1
  14    7   10 am
  15    7   18 1
  16    8    9 1
  17    8   13 2
  18    9   31 1
  19   10   11 1
  20   10   16 2
  21   11   12 2
  22   11   23 1
  23   12   13 1
  24   12   32 1
  25   13   14 1
  26   14   19 am
  27   14   33 1
  28   18   34 1
  29   18   35 1
  30   18   36 1
  31   19   20 2
  32   19   21 2
  33   19   22 1
  34   22   24 1
  35   22   27 1
  36   22   37 1
  37   23   38 1
  38   23   39 1
  39   23   40 1
  40   24   25 1
  41   24   41 1
  42   24   42 1
  43   25   26 1
  44   25   43 1
  45   25   44 1
  46   26   27 1
  47   26   45 1
  48   26   46 1
  49   27   47 1
  50   27   48 1

#	End of record

