#	Name: ASD01148212
#	Creating user name:	WinNT
#	Creation time:	15. 06. 2019 19:02

#	Modifying user name:	WinNT
#	Modification time:	15. 06. 2019 19:02

#	Program:	/corina/corina34_cracker 3.40 0067  02.08.2006

@<TRIPOS>MOLECULE
ASD01148212
  48   51    0    0    0
SMALL
NO_CHARGES


@<TRIPOS>ATOM
   1 C1            -0.0167     1.3791     0.0096 C.ar    
   2 C2             0.0021    -0.0041     0.0020 C.ar    
   3 C3             1.2100    -0.6790    -0.0131 C.ar    
   4 C4             2.3967     0.0290    -0.0207 C.ar    
   5 C5             2.3773     1.4115    -0.0131 C.ar    
   6 C6             1.1711     2.0862     0.0021 C.ar    
   7 C7             3.6719     2.1830    -0.0208 C.3     
   8 O8             4.6968     1.4643    -0.7367 O.3     
   9 C9             3.5429     3.4728    -0.8657 C.3     
  10 C10            4.0465     3.0278    -2.2256 C.2     
  11 N11            4.6717     1.9080    -2.0789 N.2     
  12 C12            3.8541     3.7507    -3.4981 C.ar    
  13 C13            4.3728     3.2263    -4.6848 C.ar    
  14 C14            3.1483     4.9564    -3.5169 C.ar    
  15 C15            2.9689     5.6304    -4.7035 C.ar    
  16 C16            3.4926     5.1090    -5.8892 C.ar    
  17 C17            4.1934     3.9005    -5.8714 C.ar    
  18 C18            3.3000     5.8325    -7.1629 C.2     
  19 O19            2.6860     6.8814    -7.1792 O.2     
  20 N20            3.8052     5.3296    -8.3067 N.am    
  21 C21            4.1230     2.5044     1.4054 C.3     
  22 F22            4.2976     1.3138     2.1188 F       
  23 F23            5.3330     3.2055     1.3649 F       
  24 F24            3.1509     3.2880     2.0366 F       
  25 Cl25          -1.4892    -0.8928     0.0121 Cl      
  26 C26            3.6242     6.0094    -9.5035 C.ar    
  27 N27            4.1272     5.5010   -10.6180 N.ar    
  28 N28            2.9481     7.1481    -9.5040 N.ar    
  29 C29            2.7576     7.8210   -10.6267 C.ar    
  30 C30            3.2753     7.3203   -11.8111 C.ar    
  31 C31            3.9730     6.1231   -11.7751 C.ar    
  32 C32            1.2313    -2.1858    -0.0209 C.3     
  33 F33            2.5567    -2.6334    -0.0361 F       
  34 F34            0.5896    -2.6672     1.1252 F       
  35 F35            0.5673    -2.6557    -1.1592 F       
  36 H36           -0.9592     1.9064     0.0169 H       
  37 H37            3.3395    -0.4977    -0.0321 H       
  38 H38            1.1566     3.1661     0.0077 H       
  39 H39            2.5031     3.7945    -0.9245 H       
  40 H40            4.1719     4.2654    -0.4605 H       
  41 H41            4.9149     2.2923    -4.6710 H       
  42 H42            2.7431     5.3593    -2.6004 H       
  43 H43            2.4230     6.5622    -4.7181 H       
  44 H44            4.5982     3.4974    -6.7880 H       
  45 H45            4.2952     4.4925    -8.2937 H       
  46 H46            2.2050     8.7489   -10.6208 H       
  47 H47            3.1343     7.8491   -12.7422 H       
  48 H48            4.3895     5.7057   -12.6799 H       
@<TRIPOS>BOND
   1    1    2 ar
   2    1    6 ar
   3    1   36 1
   4    2    3 ar
   5    2   25 1
   6    3    4 ar
   7    3   32 1
   8    4    5 ar
   9    4   37 1
  10    5    6 ar
  11    5    7 1
  12    6   38 1
  13    7    8 1
  14    7    9 1
  15    7   21 1
  16    8   11 1
  17    9   10 1
  18    9   39 1
  19    9   40 1
  20   10   11 2
  21   10   12 1
  22   12   13 ar
  23   12   14 ar
  24   13   17 ar
  25   13   41 1
  26   14   15 ar
  27   14   42 1
  28   15   16 ar
  29   15   43 1
  30   16   17 ar
  31   16   18 1
  32   17   44 1
  33   18   19 2
  34   18   20 am
  35   20   26 1
  36   20   45 1
  37   21   22 1
  38   21   23 1
  39   21   24 1
  40   26   27 ar
  41   26   28 ar
  42   27   31 ar
  43   28   29 ar
  44   29   30 ar
  45   29   46 1
  46   30   31 ar
  47   30   47 1
  48   31   48 1
  49   32   33 1
  50   32   34 1
  51   32   35 1

#	End of record

