#	Name: ASD01883394
#	Creating user name:	WinNT
#	Creation time:	15. 06. 2019 19:46

#	Modifying user name:	WinNT
#	Modification time:	15. 06. 2019 19:46

#	Program:	/corina/corina34_cracker 3.40 0067  02.08.2006

@<TRIPOS>MOLECULE
ASD01883394
  60   63    0    0    0
SMALL
NO_CHARGES


@<TRIPOS>ATOM
   1 N1             0.0021     1.3082    -0.0152 N.am    
   2 C2            -0.7518     1.3829     1.0973 C.2     
   3 C3            -1.9997     0.7182     1.1499 C.2     
   4 C4            -2.4239    -0.0108     0.0261 C.2     
   5 C5            -1.5912    -0.0513    -1.1076 C.2     
   6 C6            -0.4117     0.6073    -1.1028 C.2     
   7 O7            -0.3596     2.0222     2.0588 O.2     
   8 C8            -2.8143     0.7866     2.3257 C.1     
   9 N9            -3.4606     0.8409     3.2584 N.1     
  10 C10            1.2919     2.0017    -0.0562 C.3     
  11 N11           -3.6309    -0.6732     0.0341 N.pl3   
  12 C12            2.3744     1.0790     0.4414 C.ar    
  13 C13           -4.8964     0.0654     0.1606 C.3     
  14 C14           -5.8354    -0.3813    -0.9650 C.3     
  15 N15           -5.9647    -1.8444    -0.9388 N.3     
  16 C16           -4.6754    -2.4981    -1.1997 C.3     
  17 C17           -3.6892    -2.1376    -0.0898 C.3     
  18 C18           -6.9877    -2.2996    -1.8897 C.3     
  19 C19            3.0470     0.2613    -0.4479 C.ar    
  20 C20            4.0398    -0.5854     0.0058 C.ar    
  21 C21            4.3616    -0.6150     1.3549 C.ar    
  22 C22            3.6853     0.2064     2.2452 C.ar    
  23 C23            2.6972     1.0555     1.7856 C.ar    
  24 C24           -6.9227    -3.8227    -2.0184 C.3     
  25 C25           -7.9721    -4.2897    -2.9939 C.ar    
  26 C26           -7.6682    -4.3945    -4.3384 C.ar    
  27 C27           -8.6309    -4.8228    -5.2332 C.ar    
  28 C28           -9.8973    -5.1468    -4.7835 C.ar    
  29 C29          -10.2009    -5.0428    -3.4389 C.ar    
  30 C30           -9.2369    -4.6186    -2.5435 C.ar    
  31 O31            5.3376    -1.4474     1.8038 O.3     
  32 C32            5.6157    -1.4249     3.2053 C.3     
  33 F33            4.4634    -1.7793     3.9151 F       
  34 F34            6.6387    -2.3349     3.4924 F       
  35 F35            6.0172    -0.1383     3.5804 F       
  36 H36           -1.8967    -0.6057    -1.9826 H       
  37 H37            0.2190     0.5690    -1.9787 H       
  38 H38            1.5116     2.3000    -1.0814 H       
  39 H39            1.2488     2.8869     0.5784 H       
  40 H40           -5.3527    -0.1526     1.1262 H       
  41 H41           -4.7061     1.1353     0.0757 H       
  42 H42           -6.8159     0.0731    -0.8226 H       
  43 H43           -5.4256    -0.0696    -1.9257 H       
  44 H44           -4.8145    -3.5788    -1.2275 H       
  45 H45           -4.2817    -2.1568    -2.1571 H       
  46 H46           -2.7011    -2.5253    -0.3378 H       
  47 H47           -4.0273    -2.5657     0.8538 H       
  48 H48           -7.9742    -2.0072    -1.5297 H       
  49 H49           -6.8067    -1.8446    -2.8635 H       
  50 H50            2.7958     0.2844    -1.4980 H       
  51 H51            4.5646    -1.2242    -0.6891 H       
  52 H52            3.9340     0.1852     3.2959 H       
  53 H53            2.1704     1.6951     2.4783 H       
  54 H54           -5.9362    -4.1151    -2.3783 H       
  55 H55           -7.1037    -4.2777    -1.0446 H       
  56 H56           -6.6788    -4.1415    -4.6897 H       
  57 H57           -8.3937    -4.9040    -6.2837 H       
  58 H58          -10.6496    -5.4807    -5.4828 H       
  59 H59          -11.1904    -5.2956    -3.0877 H       
  60 H60           -9.4741    -4.5374    -1.4930 H       
@<TRIPOS>BOND
   1    1    2 am
   2    1   10 1
   3    1    6 1
   4    2    3 1
   5    2    7 2
   6    3    4 2
   7    3    8 1
   8    4    5 1
   9    4   11 1
  10    5    6 2
  11    5   36 1
  12    6   37 1
  13    8    9 3
  14   10   12 1
  15   10   38 1
  16   10   39 1
  17   11   13 1
  18   11   17 1
  19   12   19 ar
  20   12   23 ar
  21   13   14 1
  22   13   40 1
  23   13   41 1
  24   14   15 1
  25   14   42 1
  26   14   43 1
  27   15   16 1
  28   15   18 1
  29   16   17 1
  30   16   44 1
  31   16   45 1
  32   17   46 1
  33   17   47 1
  34   18   24 1
  35   18   48 1
  36   18   49 1
  37   19   20 ar
  38   19   50 1
  39   20   21 ar
  40   20   51 1
  41   21   22 ar
  42   21   31 1
  43   22   23 ar
  44   22   52 1
  45   23   53 1
  46   24   25 1
  47   24   54 1
  48   24   55 1
  49   25   26 ar
  50   25   30 ar
  51   26   27 ar
  52   26   56 1
  53   27   28 ar
  54   27   57 1
  55   28   29 ar
  56   28   58 1
  57   29   30 ar
  58   29   59 1
  59   30   60 1
  60   31   32 1
  61   32   33 1
  62   32   34 1
  63   32   35 1

#	End of record

