#	Name: ASD08150523
#	Creating user name:	WinNT
#	Creation time:	15. 06. 2019 21:16

#	Modifying user name:	WinNT
#	Modification time:	15. 06. 2019 21:16

#	Program:	/corina/corina34_cracker 3.40 0067  02.08.2006

@<TRIPOS>MOLECULE
ASD08150523
  60   65    0    0    0
SMALL
NO_CHARGES


@<TRIPOS>ATOM
   1 N1             1.1197     3.3660     1.8428 N.am    
   2 C2             1.3554     2.1108     2.2716 C.2     
   3 C3             2.6002     1.4900     2.0437 C.2     
   4 C4             3.5838     2.1534     1.3841 C.2     
   5 C5             3.3391     3.4737     0.9311 C.ar    
   6 C6             4.3248     4.2058     0.2417 C.ar    
   7 N7             4.0963     5.4235    -0.1755 N.ar    
   8 C8             2.9229     6.0425     0.0254 C.ar    
   9 C9             1.8736     5.3816     0.7101 C.ar    
  10 C10            2.0889     4.0630     1.1749 C.ar    
  11 C11            0.4871     7.3279     0.4446 C.ar    
  12 C12            1.5292     7.9751    -0.2328 C.ar    
  13 C13            2.7205     7.3521    -0.4396 C.ar    
  14 O14            0.4803     1.5039     2.8654 O.2     
  15 C15           -0.1279     3.9590     2.0771 C.ar    
  16 C16           -1.2019     3.6684     1.2462 C.ar    
  17 C17           -2.4311     4.2526     1.4770 C.ar    
  18 C18           -2.5938     5.1308     2.5407 C.ar    
  19 C19           -1.5193     5.4212     3.3723 C.ar    
  20 C20           -0.2918     4.8332     3.1442 C.ar    
  21 C21            0.6549     6.0362     0.9150 C.ar    
  22 C22           -0.8036     8.0296     0.6575 C.2     
  23 C23           -0.9687     9.2599     1.2241 C.2     
  24 N24           -3.8385     5.7229     2.7743 N.3     
  25 C25           -4.0643     6.8520     1.8611 C.3     
  26 C26           -3.9645     6.1490     4.1751 C.3     
  27 C27           -5.3660     6.7179     4.4085 C.3     
  28 N28           -5.5918     7.8470     3.4953 N.3     
  29 C29           -5.4659     7.4209     2.0945 C.3     
  30 N30           -2.2893     9.5322     1.2302 N.pl3   
  31 N31           -2.9624     8.4478     0.6547 N.2     
  32 C32           -2.0802     7.5493     0.3057 C.2     
  33 C33           -2.9124    10.7521     1.7499 C.3     
  34 C34           -3.5963     3.9379     0.5746 C.3     
  35 F35           -3.2199     2.9557    -0.3478 F       
  36 F36           -4.6680     3.4701     1.3426 F       
  37 F37           -3.9829     5.0958    -0.1089 F       
  38 H38            2.7720     0.4833     2.3952 H       
  39 H39            4.5393     1.6819     1.2074 H       
  40 H40            5.2874     3.7531     0.0544 H       
  41 H41            1.3843     8.9819    -0.5959 H       
  42 H42            3.5133     7.8663    -0.9627 H       
  43 H43           -1.0753     2.9855     0.4191 H       
  44 H44           -1.6456     6.1040     4.1994 H       
  45 H45            0.5435     5.0589     3.7906 H       
  46 H46           -0.1494     5.5381     1.4359 H       
  47 H47           -0.1839     9.8994     1.6002 H       
  48 H48           -3.3212     7.6267     2.0501 H       
  49 H49           -3.9782     6.5087     0.8302 H       
  50 H50           -3.8055     5.2932     4.8312 H       
  51 H51           -3.2202     6.9157     4.3903 H       
  52 H52           -6.1091     5.9432     4.2195 H       
  53 H53           -5.4521     7.0612     5.4394 H       
  54 H54           -6.4901     8.2743     3.6639 H       
  55 H55           -5.6248     8.2767     1.4384 H       
  56 H56           -6.2101     6.6542     1.8793 H       
  57 H57           -2.2933     6.6007    -0.1647 H       
  58 H58           -2.9808    11.4929     0.9532 H       
  59 H59           -3.9120    10.5210     2.1181 H       
  60 H60           -2.3079    11.1499     2.5650 H       
@<TRIPOS>BOND
   1    1    2 am
   2    1   10 1
   3    1   15 1
   4    2    3 1
   5    2   14 2
   6    3    4 2
   7    3   38 1
   8    4    5 1
   9    4   39 1
  10    5    6 ar
  11    5   10 ar
  12    6    7 ar
  13    6   40 1
  14    7    8 ar
  15    8    9 ar
  16    8   13 ar
  17    9   10 ar
  18    9   21 ar
  19   11   12 ar
  20   11   22 1
  21   11   21 ar
  22   12   13 ar
  23   12   41 1
  24   13   42 1
  25   15   16 ar
  26   15   20 ar
  27   16   17 ar
  28   16   43 1
  29   17   18 ar
  30   17   34 1
  31   18   19 ar
  32   18   24 1
  33   19   20 ar
  34   19   44 1
  35   20   45 1
  36   21   46 1
  37   22   23 2
  38   22   32 1
  39   23   30 1
  40   23   47 1
  41   24   25 1
  42   24   26 1
  43   25   29 1
  44   25   48 1
  45   25   49 1
  46   26   27 1
  47   26   50 1
  48   26   51 1
  49   27   28 1
  50   27   52 1
  51   27   53 1
  52   28   29 1
  53   28   54 1
  54   29   55 1
  55   29   56 1
  56   30   31 1
  57   30   33 1
  58   31   32 2
  59   32   57 1
  60   33   58 1
  61   33   59 1
  62   33   60 1
  63   34   35 1
  64   34   36 1
  65   34   37 1

#	End of record

