#	Name: ASD08070172
#	Creating user name:	WinNT
#	Creation time:	15. 06. 2019 21:14

#	Modifying user name:	WinNT
#	Modification time:	15. 06. 2019 21:14

#	Program:	/corina/corina34_cracker 3.40 0067  02.08.2006

@<TRIPOS>MOLECULE
ASD08070172
  35   36    0    0    0
SMALL
NO_CHARGES


@<TRIPOS>ATOM
   1 C1            -0.0167     1.3803     0.0096 C.ar    
   2 C2             0.0021    -0.0041     0.0020 C.ar    
   3 C3             1.2053    -0.6811    -0.0127 C.ar    
   4 C4             2.4049     0.0323    -0.0204 C.ar    
   5 C5             2.3807     1.4274    -0.0131 C.ar    
   6 C6             1.1703     2.0945     0.0021 C.ar    
   7 C7             3.6963    -0.6874    -0.0356 C.2     
   8 N8             4.8531     0.0041    -0.0430 N.am    
   9 O9             3.7147    -1.9028    -0.0415 O.2     
  10 C10            6.5038    -1.0604    -1.5003 C.3     
  11 C11            6.1327    -0.7091    -0.0581 C.3     
  12 C12            7.3424     1.4660    -0.2768 C.3     
  13 C13            7.2203     0.1817     0.5457 C.3     
  14 F14            1.1446     3.4452     0.0092 F       
  15 Cl15          -1.4905    -0.8905     0.0116 Cl      
  16 C16            6.8492     0.5330     1.9879 C.3     
  17 C17            6.6260     0.2239    -2.3228 C.3     
  18 C18            7.7135     1.1147    -1.7189 C.3     
  19 H19           -0.9604     1.9054     0.0170 H       
  20 H20            1.2182    -1.7611    -0.0179 H       
  21 H21            3.3058     1.9848    -0.0186 H       
  22 H22            4.8385     0.9739    -0.0383 H       
  23 H23            7.4558    -1.5911    -1.5115 H       
  24 H24            5.7290    -1.6951    -1.9305 H       
  25 H25            6.0457    -1.6241     0.5278 H       
  26 H26            6.3904     1.9966    -0.2655 H       
  27 H27            8.1172     2.1007     0.1534 H       
  28 H28            8.1723    -0.3489     0.5345 H       
  29 H29            5.8972     1.0636     1.9991 H       
  30 H30            6.7622    -0.3819     2.5738 H       
  31 H31            7.6240     1.1677     2.4181 H       
  32 H32            6.8903    -0.0264    -3.3502 H       
  33 H33            5.6739     0.7545    -2.3115 H       
  34 H34            7.8005     2.0297    -2.3049 H       
  35 H35            8.6655     0.5841    -1.7302 H       
@<TRIPOS>BOND
   1    1    2 ar
   2    1    6 ar
   3    1   19 1
   4    2    3 ar
   5    2   15 1
   6    3    4 ar
   7    3   20 1
   8    4    5 ar
   9    4    7 1
  10    5    6 ar
  11    5   21 1
  12    6   14 1
  13    7    8 am
  14    7    9 2
  15    8   11 1
  16    8   22 1
  17   10   11 1
  18   10   17 1
  19   10   23 1
  20   10   24 1
  21   11   13 1
  22   11   25 1
  23   12   13 1
  24   12   18 1
  25   12   26 1
  26   12   27 1
  27   13   16 1
  28   13   28 1
  29   16   29 1
  30   16   30 1
  31   16   31 1
  32   17   18 1
  33   17   32 1
  34   17   33 1
  35   18   34 1
  36   18   35 1

#	End of record

