#	Name: ASD05250026
#	Creating user name:	WinNT
#	Creation time:	15. 06. 2019 20:58

#	Modifying user name:	WinNT
#	Modification time:	15. 06. 2019 20:58

#	Program:	/corina/corina34_cracker 3.40 0067  02.08.2006

@<TRIPOS>MOLECULE
ASD05250026
  29   31    0    0    0
SMALL
NO_CHARGES


@<TRIPOS>ATOM
   1 C1            -0.0134     1.4155    -0.0984 C.ar    
   2 C2             0.0058    -0.0036    -0.1020 C.ar    
   3 C3            -1.2070    -0.7287    -0.2010 C.ar    
   4 C4            -2.3978    -0.0746    -0.2936 C.ar    
   5 C5            -2.4328     1.3844    -0.2921 C.ar    
   6 C6            -1.2359     2.1093    -0.1876 C.ar    
   7 C7             1.2111     2.1210     0.0019 C.ar    
   8 C8             2.3857     1.3807     0.0930 C.ar    
   9 C9             2.3170    -0.0181     0.0825 C.ar    
  10 N10            1.1633    -0.6529    -0.0119 N.ar    
  11 C11           -3.4810     2.3240    -0.3722 C.2     
  12 C12           -2.9246     3.5688    -0.3236 C.2     
  13 N13           -1.5563     3.4423    -0.2101 N.pl3   
  14 O14           -3.5547    -0.7811    -0.3881 O.3     
  15 O15           -1.1820    -2.0891    -0.2039 O.3     
  16 C16            1.2400     3.5970     0.0090 C.2     
  17 O17            1.3339     4.2118    -1.0439 O.co2   
  18 O18            1.1699     4.2048     1.0678 O.co2   
  19 C19           -3.6622     4.8350    -0.3779 C.2     
  20 O20           -3.0576     5.8983    -0.3266 O.co2   
  21 O21           -4.8826     4.8289    -0.4746 O.co2   
  22 C22            3.5675    -0.8032     0.1794 C.2     
  23 O23            4.6437    -0.2301     0.2674 O.co2   
  24 O24            3.5243    -2.0248     0.1716 O.co2   
  25 H25            3.3404     1.8795     0.1706 H       
  26 H26           -4.5339     2.0989    -0.4570 H       
  27 H27           -0.9240     4.1759    -0.1561 H       
  28 H28           -3.9597    -0.9886     0.4652 H       
  29 H29           -1.2447    -2.4856     0.6758 H       
@<TRIPOS>BOND
   1    1    2 ar
   2    1    7 ar
   3    1    6 ar
   4    2    3 ar
   5    2   10 ar
   6    3    4 ar
   7    3   15 1
   8    4    5 ar
   9    4   14 1
  10    5    6 ar
  11    5   11 1
  12    6   13 1
  13    7    8 ar
  14    7   16 1
  15    8    9 ar
  16    8   25 1
  17    9   10 ar
  18    9   22 1
  19   11   12 2
  20   11   26 1
  21   12   13 1
  22   12   19 1
  23   13   27 1
  24   14   28 1
  25   15   29 1
  26   16   17 ar
  27   16   18 ar
  28   19   20 ar
  29   19   21 ar
  30   22   23 ar
  31   22   24 ar

#	End of record

