#	Name: ASD00490004
#	Creating user name:	WinNT
#	Creation time:	15. 06. 2019 18:36

#	Modifying user name:	WinNT
#	Modification time:	15. 06. 2019 18:36

#	Program:	/corina/corina34_cracker 3.40 0067  02.08.2006

@<TRIPOS>MOLECULE
ASD00490004
  21   20    0    0    0
SMALL
NO_CHARGES


@<TRIPOS>ATOM
   1 N1            -0.0178     1.4648     0.0101 N.3     
   2 C2             0.0021    -0.0041     0.0020 C.3     
   3 C3             0.7074    -0.4901    -1.2379 C.2     
   4 O4             1.4504     0.2491    -1.8392 O.2     
   5 C5             0.7421    -0.5109     1.2415 C.3     
   6 C6            -0.0416    -0.1236     2.4973 C.3     
   7 C7             0.6984    -0.6305     3.7368 C.3     
   8 N8            -0.0540    -0.2586     4.9424 N.3     
   9 O9             0.5104    -1.7441    -1.6742 O.3     
  10 H10            0.9191     1.8392     0.0032 H       
  11 H11           -0.5563     1.8234    -0.7642 H       
  12 H12           -1.0205    -0.3814     0.0098 H       
  13 H13            0.8346    -1.5958     1.1912 H       
  14 H14            1.7350    -0.0630     1.2804 H       
  15 H15           -0.1341     0.9613     2.5476 H       
  16 H16           -1.0345    -0.5716     2.4584 H       
  17 H17            0.7909    -1.7154     3.6864 H       
  18 H18            1.6914    -0.1825     3.7756 H       
  19 H19           -0.9997    -0.6080     4.9006 H       
  20 H20            0.4146    -0.5824     5.7753 H       
  21 H21            0.9846    -2.0103    -2.4737 H       
@<TRIPOS>BOND
   1    1    2 1
   2    1   10 1
   3    1   11 1
   4    2    3 1
   5    2    5 1
   6    2   12 1
   7    3    4 2
   8    3    9 1
   9    5    6 1
  10    5   13 1
  11    5   14 1
  12    6    7 1
  13    6   15 1
  14    6   16 1
  15    7    8 1
  16    7   17 1
  17    7   18 1
  18    8   19 1
  19    8   20 1
  20    9   21 1

#	End of record

