#	Name: ASD02500102
#	Creating user name:	WinNT
#	Creation time:	15. 06. 2019 20:22

#	Modifying user name:	WinNT
#	Modification time:	15. 06. 2019 20:22

#	Program:	/corina/corina34_cracker 3.40 0067  02.08.2006

@<TRIPOS>MOLECULE
ASD02500102
  60   64    0    0    0
SMALL
NO_CHARGES


@<TRIPOS>ATOM
   1 N1            -3.5229     5.5737     0.0036 N.ar    
   2 C2            -4.6500     6.2117    -0.1986 C.ar    
   3 C3            -5.7652     6.0047     0.6108 C.ar    
   4 C4            -5.7002     5.1170     1.6467 C.ar    
   5 C5            -4.4883     4.4334     1.8606 C.ar    
   6 C6            -4.3462     3.5066     2.9054 C.ar    
   7 C7            -3.1572     2.8660     3.0796 C.ar    
   8 C8            -2.0787     3.1184     2.2346 C.ar    
   9 C9            -2.1816     4.0105     1.2118 C.ar    
  10 C10           -3.3927     4.6917     0.9997 C.ar    
  11 S11           -0.8016     4.3111     0.1584 S.o2    
  12 O12           -0.6455     5.7221     0.0943 O.2     
  13 O13            0.2302     3.4338     0.5885 O.2     
  14 N14           -1.2301     3.8184    -1.3635 N.am    
  15 C15           -1.4382     2.4686    -1.6244 C.ar    
  16 C16           -1.1105     1.9436    -2.8717 C.ar    
  17 C17           -1.3153     0.6083    -3.1330 C.ar    
  18 C18           -1.8529    -0.2215    -2.1445 C.ar    
  19 C19           -2.1808     0.3086    -0.8934 C.ar    
  20 C20           -1.9683     1.6439    -0.6363 C.ar    
  21 C21           -0.5315     2.8388    -3.9367 C.3     
  22 C22           -2.0741    -1.6535    -2.4215 C.2     
  23 O23           -2.5058    -2.0039    -3.5029 O.2     
  24 N24           -1.7977    -2.5733    -1.4760 N.am    
  25 C25           -1.9232    -4.0106    -1.7616 C.3     
  26 C26           -0.6215    -4.7048    -1.3470 C.3     
  27 N27           -0.3176    -4.3735     0.0516 N.3     
  28 C28           -0.0830    -2.9331     0.2191 C.3     
  29 C29           -1.3568    -2.1665    -0.1331 C.3     
  30 C30            2.3082    -5.7114     2.2414 C.ar    
  31 C31            1.2315    -4.9595     1.8209 C.ar    
  32 C32            0.7668    -5.1127     0.5148 C.ar    
  33 C33            1.4168    -6.0263    -0.3147 C.ar    
  34 C34            2.4871    -6.7393     0.1828 C.ar    
  35 N35            2.8967    -6.5660     1.4256 N.ar    
  36 H36           -4.7160     6.9168    -1.0140 H       
  37 H37           -6.6799     6.5461     0.4195 H       
  38 H38           -6.5548     4.9446     2.2842 H       
  39 H39           -5.1749     3.3031     3.5674 H       
  40 H40           -3.0488     2.1532     3.8837 H       
  41 H41           -1.1459     2.5980     2.3939 H       
  42 H42           -1.3359     4.4715    -2.0728 H       
  43 H43           -1.0612     0.2017    -4.1007 H       
  44 H44           -2.5963    -0.3299    -0.1278 H       
  45 H45           -2.2171     2.0531     0.3317 H       
  46 H46            0.5555     2.8437    -3.8558 H       
  47 H47           -0.8210     2.4679    -4.9200 H       
  48 H48           -0.9102     3.8524    -3.8048 H       
  49 H49           -2.7562    -4.4254    -1.1939 H       
  50 H50           -2.0935    -4.1586    -2.8280 H       
  51 H51           -0.7364    -5.7839    -1.4485 H       
  52 H52            0.1924    -4.3635    -1.9867 H       
  53 H53            0.1926    -2.7274     1.2535 H       
  54 H54            0.7234    -2.6165    -0.4424 H       
  55 H55           -1.1527    -1.0958    -0.1234 H       
  56 H56           -2.1342    -2.4006     0.5941 H       
  57 H57            2.6777    -5.5961     3.2497 H       
  58 H58            0.7544    -4.2622     2.4937 H       
  59 H59            1.0863    -6.1734    -1.3323 H       
  60 H60            2.9964    -7.4489    -0.4523 H       
@<TRIPOS>BOND
   1    1    2 ar
   2    1   10 ar
   3    2    3 ar
   4    2   36 1
   5    3    4 ar
   6    3   37 1
   7    4    5 ar
   8    4   38 1
   9    5    6 ar
  10    5   10 ar
  11    6    7 ar
  12    6   39 1
  13    7    8 ar
  14    7   40 1
  15    8    9 ar
  16    8   41 1
  17    9   10 ar
  18    9   11 1
  19   11   12 2
  20   11   13 2
  21   11   14 am
  22   14   15 1
  23   14   42 1
  24   15   16 ar
  25   15   20 ar
  26   16   17 ar
  27   16   21 1
  28   17   18 ar
  29   17   43 1
  30   18   19 ar
  31   18   22 1
  32   19   20 ar
  33   19   44 1
  34   20   45 1
  35   21   46 1
  36   21   47 1
  37   21   48 1
  38   22   23 2
  39   22   24 am
  40   24   25 1
  41   24   29 1
  42   25   26 1
  43   25   49 1
  44   25   50 1
  45   26   27 1
  46   26   51 1
  47   26   52 1
  48   27   28 1
  49   27   32 1
  50   28   29 1
  51   28   53 1
  52   28   54 1
  53   29   55 1
  54   29   56 1
  55   30   31 ar
  56   30   35 ar
  57   30   57 1
  58   31   32 ar
  59   31   58 1
  60   32   33 ar
  61   33   34 ar
  62   33   59 1
  63   34   35 ar
  64   34   60 1

#	End of record

