#	Name: ASD03731252
#	Creating user name:	WinNT
#	Creation time:	15. 06. 2019 20:45

#	Modifying user name:	WinNT
#	Modification time:	15. 06. 2019 20:45

#	Program:	/corina/corina34_cracker 3.40 0067  02.08.2006

@<TRIPOS>MOLECULE
ASD03731252
  57   62    0    0    0
SMALL
NO_CHARGES


@<TRIPOS>ATOM
   1 N1            -0.0171     1.3440    -0.0041 N.am    
   2 C2             0.0018    -0.0036    -0.0036 C.2     
   3 O3             1.0631    -0.5968    -0.0147 O.2     
   4 N4            -1.1558    -0.6938     0.0094 N.am    
   5 C5            -1.1402    -2.0885    -0.1039 C.ar    
   6 C6            -2.0782    -2.8526     0.5782 C.ar    
   7 C7            -2.0605    -4.2287     0.4639 C.ar    
   8 C8            -1.1099    -4.8461    -0.3286 C.ar    
   9 C9            -0.1748    -4.0882    -1.0089 C.ar    
  10 C10           -0.1905    -2.7110    -0.9029 C.ar    
  11 C11           -3.0776    -5.0586     1.2040 C.3     
  12 F12           -4.2068    -5.2401     0.3983 F       
  13 F13           -2.5237    -6.3044     1.5180 F       
  14 F14           -3.4465    -4.4019     2.3829 F       
  15 C15            1.2412     2.0942    -0.0182 C.3     
  16 C16            0.9406     3.5944    -0.0158 C.3     
  17 O17            7.6094     2.0683    -2.2270 O.3     
  18 C18            8.9818     2.4193    -2.4843 C.3     
  19 O19            8.9009     3.7602    -3.0023 O.3     
  20 C20            7.7636     4.2919    -2.4649 C.ar    
  21 C21            6.9695     3.2510    -1.9892 C.ar    
  22 C22            7.3353     5.6013    -2.3402 C.ar    
  23 C23            6.1118     5.8891    -1.7427 C.ar    
  24 C24            5.3236     4.8403    -1.2789 C.ar    
  25 C25            5.7506     3.5341    -1.3962 C.ar    
  26 O26            5.5182     7.0944    -1.5082 O.3     
  27 C27            4.0706     5.4600    -0.7204 C.3     
  28 C28            4.1120     6.8929    -1.2686 C.3     
  29 N29            2.1989     4.3446    -0.0299 N.am    
  30 C30            2.8328     4.7297    -1.1554 C.2     
  31 C31            4.0408     5.4352     0.7791 C.ar    
  32 C32            4.8776     5.9276     1.7555 C.ar    
  33 C33            4.5696     5.7399     3.0912 C.ar    
  34 C34            3.4201     5.0561     3.4431 C.ar    
  35 C35            2.5792     4.5602     2.4687 C.ar    
  36 C36            2.8810     4.7448     1.1216 C.ar    
  37 O37            2.4736     4.5264    -2.2959 O.2     
  38 H38           -0.8638     1.8172     0.0007 H       
  39 H39           -1.9998    -0.2237     0.0972 H       
  40 H40           -2.8205    -2.3712     1.1975 H       
  41 H41           -1.0979    -5.9225    -0.4160 H       
  42 H42            0.5662    -4.5733    -1.6270 H       
  43 H43            0.5376    -2.1193    -1.4378 H       
  44 H44            1.8260     1.8394     0.8656 H       
  45 H45            1.8067     1.8384    -0.9142 H       
  46 H46            0.3558     3.8492    -0.8996 H       
  47 H47            0.3751     3.8502     0.8802 H       
  48 H48            9.5616     2.3996    -1.5615 H       
  49 H49            9.4163     1.7481    -3.2251 H       
  50 H50            7.9545     6.4057    -2.7090 H       
  51 H51            5.1325     2.7299    -1.0249 H       
  52 H52            3.7399     7.6014    -0.5286 H       
  53 H53            3.5463     6.9686    -2.1973 H       
  54 H54            5.7748     6.4611     1.4785 H       
  55 H55            5.2252     6.1267     3.8574 H       
  56 H56            3.1798     4.9095     4.4857 H       
  57 H57            1.6836     4.0268     2.7513 H       
@<TRIPOS>BOND
   1    1    2 am
   2    1   15 1
   3    1   38 1
   4    2    3 2
   5    2    4 am
   6    4    5 1
   7    4   39 1
   8    5    6 ar
   9    5   10 ar
  10    6    7 ar
  11    6   40 1
  12    7    8 ar
  13    7   11 1
  14    8    9 ar
  15    8   41 1
  16    9   10 ar
  17    9   42 1
  18   10   43 1
  19   11   12 1
  20   11   13 1
  21   11   14 1
  22   15   16 1
  23   15   44 1
  24   15   45 1
  25   16   29 1
  26   16   46 1
  27   16   47 1
  28   17   18 1
  29   17   21 1
  30   18   19 1
  31   18   48 1
  32   18   49 1
  33   19   20 1
  34   20   21 ar
  35   20   22 ar
  36   21   25 ar
  37   22   23 ar
  38   22   50 1
  39   23   24 ar
  40   23   26 1
  41   24   25 ar
  42   24   27 1
  43   25   51 1
  44   26   28 1
  45   27   28 1
  46   27   30 1
  47   27   31 1
  48   28   52 1
  49   28   53 1
  50   29   30 am
  51   29   36 1
  52   30   37 2
  53   31   32 ar
  54   31   36 ar
  55   32   33 ar
  56   32   54 1
  57   33   34 ar
  58   33   55 1
  59   34   35 ar
  60   34   56 1
  61   35   36 ar
  62   35   57 1

#	End of record

