#	Name: ASD00600011
#	Creating user name:	WinNT
#	Creation time:	15. 06. 2019 18:36

#	Modifying user name:	WinNT
#	Modification time:	15. 06. 2019 18:36

#	Program:	/corina/corina34_cracker 3.40 0067  02.08.2006

@<TRIPOS>MOLECULE
ASD00600011
  69   72    0    0    0
SMALL
NO_CHARGES


@<TRIPOS>ATOM
   1 C1             0.3857     0.7340    -0.2588 C.ar    
   2 C2             0.4038    -0.5805    -0.6736 C.ar    
   3 C3             1.5848    -1.1590    -1.1067 C.ar    
   4 C4             2.7502    -0.4244    -1.1244 C.ar    
   5 C5             2.7546     0.9146    -0.7047 C.ar    
   6 C6             1.5577     1.5007    -0.2693 C.ar    
   7 C7             1.4658     2.8959     0.1820 C.2     
   8 C8             4.0278     1.6367    -0.7436 C.2     
   9 N9             2.0953     3.9212    -0.3876 N.am    
  10 C10            4.1604     2.9057    -1.1220 C.2     
  11 C11            2.9828     3.7443    -1.5346 C.3     
  12 O12            0.7631     3.1311     1.1457 O.2     
  13 C13            1.8916     5.2680     0.1518 C.3     
  14 C14            2.9372     5.5478     1.2332 C.3     
  15 C15            2.8043     6.9960     1.7086 C.3     
  16 C16            2.7153     4.6009     2.4143 C.3     
  17 C17            5.4979     3.5046    -1.1381 C.2     
  18 N18            5.6458     4.8158    -1.4125 N.am    
  19 O19            6.4749     2.8181    -0.9036 O.2     
  20 C20            6.8980     5.4221    -1.2739 C.ar    
  21 C21            7.7680     5.0022    -0.2758 C.ar    
  22 C22            7.2770     6.4418    -2.1377 C.ar    
  23 C23            8.5146     7.0385    -1.9980 C.ar    
  24 C24            9.3763     6.6217    -0.9999 C.ar    
  25 C25            9.0041     5.6033    -0.1416 C.ar    
  26 C26           10.7262     7.2749    -0.8508 C.3     
  27 N27           10.6172     8.4218     0.0607 N.3     
  28 C28           10.2894     7.9819     1.4234 C.3     
  29 C29           11.8483     9.2231     0.0480 C.3     
  30 C30           11.6543    10.4741     0.9105 C.3     
  31 C31           12.9662    11.2620     0.9552 C.3     
  32 O32           14.0054    10.4257     1.4677 O.3     
  33 C33           14.2636     9.2644     0.6759 C.3     
  34 C34           13.0039     8.3962     0.6200 C.3     
  35 H35           -0.5413     1.1778     0.0730 H       
  36 H36           -0.5066    -1.1614    -0.6604 H       
  37 H37            1.5926    -2.1890    -1.4312 H       
  38 H38            3.6674    -0.8827    -1.4636 H       
  39 H39            4.9186     1.1041    -0.4450 H       
  40 H40            2.4429     3.2447    -2.3391 H       
  41 H41            3.3315     4.7179    -1.8788 H       
  42 H42            1.9932     5.9996    -0.6498 H       
  43 H43            0.8936     5.3391     0.5843 H       
  44 H44            3.9349     5.3900     0.8234 H       
  45 H45            1.8067     7.1538     2.1183 H       
  46 H46            3.5492     7.1953     2.4789 H       
  47 H47            2.9624     7.6705     0.8671 H       
  48 H48            2.8100     3.5692     2.0756 H       
  49 H49            3.4602     4.8002     3.1847 H       
  50 H50            1.7176     4.7587     2.8240 H       
  51 H51            4.8836     5.3389    -1.7062 H       
  52 H52            7.4779     4.2069     0.3948 H       
  53 H53            6.6049     6.7673    -2.9178 H       
  54 H54            8.8100     7.8314    -2.6692 H       
  55 H55            9.6810     5.2773     0.6342 H       
  56 H56           11.4357     6.5541    -0.4446 H       
  57 H57           11.0738     7.6172    -1.8255 H       
  58 H58           11.0726     7.3180     1.7892 H       
  59 H59           10.2147     8.8506     2.0775 H       
  60 H60            9.3376     7.4508     1.4146 H       
  61 H61           12.0808     9.5182    -0.9752 H       
  62 H62           10.8703    11.0962     0.4787 H       
  63 H63           11.3717    10.1795     1.9211 H       
  64 H64           13.2271    11.5910    -0.0507 H       
  65 H65           12.8464    12.1309     1.6023 H       
  66 H66           14.5415     9.5672    -0.3336 H       
  67 H67           15.0785     8.6942     1.1219 H       
  68 H68           12.7485     8.0596     1.6247 H       
  69 H69           13.1850     7.5323    -0.0195 H       
@<TRIPOS>BOND
   1    1    2 ar
   2    1    6 ar
   3    1   35 1
   4    2    3 ar
   5    2   36 1
   6    3    4 ar
   7    3   37 1
   8    4    5 ar
   9    4   38 1
  10    5    6 ar
  11    5    8 1
  12    6    7 1
  13    7    9 am
  14    7   12 2
  15    8   10 2
  16    8   39 1
  17    9   11 1
  18    9   13 1
  19   10   17 1
  20   10   11 1
  21   11   40 1
  22   11   41 1
  23   13   14 1
  24   13   42 1
  25   13   43 1
  26   14   15 1
  27   14   16 1
  28   14   44 1
  29   15   45 1
  30   15   46 1
  31   15   47 1
  32   16   48 1
  33   16   49 1
  34   16   50 1
  35   17   18 am
  36   17   19 2
  37   18   20 1
  38   18   51 1
  39   20   22 ar
  40   20   21 ar
  41   21   25 ar
  42   21   52 1
  43   22   23 ar
  44   22   53 1
  45   23   24 ar
  46   23   54 1
  47   24   25 ar
  48   24   26 1
  49   25   55 1
  50   26   27 1
  51   26   56 1
  52   26   57 1
  53   27   28 1
  54   27   29 1
  55   28   58 1
  56   28   59 1
  57   28   60 1
  58   29   30 1
  59   29   34 1
  60   29   61 1
  61   30   31 1
  62   30   62 1
  63   30   63 1
  64   31   32 1
  65   31   64 1
  66   31   65 1
  67   32   33 1
  68   33   34 1
  69   33   66 1
  70   33   67 1
  71   34   68 1
  72   34   69 1

#	End of record

