#	Name: ASD01918208
#	Creating user name:	WinNT
#	Creation time:	15. 06. 2019 20:11

#	Modifying user name:	WinNT
#	Modification time:	15. 06. 2019 20:11

#	Program:	/corina/corina34_cracker 3.40 0067  02.08.2006

@<TRIPOS>MOLECULE
ASD01918208
  40   43    0    0    0
SMALL
NO_CHARGES


@<TRIPOS>ATOM
   1 C1             0.0470     1.3146    -0.0372 C.ar    
   2 C2             0.1984    -0.0747    -0.2767 C.ar    
   3 C3             1.4821    -0.6568    -0.1402 C.ar    
   4 N4             2.5262     0.1020     0.2098 N.ar    
   5 C5             2.4008     1.3881     0.4349 C.ar    
   6 C6             1.1771     2.0372     0.3221 C.ar    
   7 C7            -1.2719     1.9745    -0.1718 C.ar    
   8 C8            -2.2613     1.7639     0.7887 C.ar    
   9 C9            -3.4879     2.3815     0.6586 C.ar    
  10 C10           -3.7378     3.2093    -0.4230 C.ar    
  11 C11           -2.7594     3.4216    -1.3796 C.ar    
  12 C12           -1.5273     2.8136    -1.2565 C.ar    
  13 C13           -0.8920    -0.8745    -0.6426 C.ar    
  14 C14           -0.7070    -2.2062    -0.8641 C.ar    
  15 C15            0.5546    -2.7834    -0.7310 C.ar    
  16 C16            1.6358    -2.0335    -0.3769 C.ar    
  17 S17            1.0602     3.7675     0.6337 S.o2    
  18 C18            0.0664     3.9720     2.0743 C.ar    
  19 O19            2.3674     4.2015     0.9831 O.2     
  20 O20            0.3202     4.3206    -0.4460 O.2     
  21 C21           -1.2798     4.2609     1.9495 C.ar    
  22 C22            0.6322     3.8378     3.3285 C.ar    
  23 C23           -0.1463     3.9975     4.4591 C.ar    
  24 C24           -1.4935     4.2925     4.3353 C.ar    
  25 C25           -2.0602     4.4215     3.0786 C.ar    
  26 F26           -2.2556     4.4484     5.4399 F       
  27 Cl27          -5.2837     3.9834    -0.5805 Cl      
  28 Cl28           0.7517    -4.4836    -1.0213 Cl      
  29 H29            3.2735     1.9591     0.7152 H       
  30 H30           -2.0675     1.1181     1.6325 H       
  31 H31           -4.2548     2.2188     1.4014 H       
  32 H32           -2.9598     4.0679    -2.2214 H       
  33 H33           -0.7634     2.9834    -2.0008 H       
  34 H34           -1.8741    -0.4379    -0.7483 H       
  35 H35           -1.5483    -2.8220    -1.1458 H       
  36 H36            2.6069    -2.4955    -0.2778 H       
  37 H37           -1.7216     4.3615     0.9691 H       
  38 H38            1.6830     3.6078     3.4248 H       
  39 H39            0.2958     3.8920     5.4388 H       
  40 H40           -3.1117     4.6475     2.9808 H       
@<TRIPOS>BOND
   1    1    2 ar
   2    1    6 ar
   3    1    7 1
   4    2    3 ar
   5    2   13 ar
   6    3    4 ar
   7    3   16 ar
   8    4    5 ar
   9    5    6 ar
  10    5   29 1
  11    6   17 1
  12    7    8 ar
  13    7   12 ar
  14    8    9 ar
  15    8   30 1
  16    9   10 ar
  17    9   31 1
  18   10   11 ar
  19   10   27 1
  20   11   12 ar
  21   11   32 1
  22   12   33 1
  23   13   14 ar
  24   13   34 1
  25   14   15 ar
  26   14   35 1
  27   15   16 ar
  28   15   28 1
  29   16   36 1
  30   17   18 1
  31   17   19 2
  32   17   20 2
  33   18   22 ar
  34   18   21 ar
  35   21   25 ar
  36   21   37 1
  37   22   23 ar
  38   22   38 1
  39   23   24 ar
  40   23   39 1
  41   24   25 ar
  42   24   26 1
  43   25   40 1

#	End of record

