#	Name: ASD04910095
#	Creating user name:	WinNT
#	Creation time:	15. 06. 2019 20:55

#	Modifying user name:	WinNT
#	Modification time:	15. 06. 2019 20:55

#	Program:	/corina/corina34_cracker 3.40 0067  02.08.2006

@<TRIPOS>MOLECULE
ASD04910095
  22   23    0    0    0
SMALL
NO_CHARGES


@<TRIPOS>ATOM
   1 C1            -0.0167     1.3824     0.0096 C.ar    
   2 C2             0.0021    -0.0041     0.0020 C.ar    
   3 C3             1.2263    -0.6661    -0.0132 C.ar    
   4 C4             2.3849     0.0910    -0.0202 C.ar    
   5 C5             2.2883     1.4765    -0.0118 C.ar    
   6 N6             1.1070     2.0721     0.0026 N.ar    
   7 O7            -1.1610    -0.7081     0.0098 O.3     
   8 N8             3.4536     2.2513    -0.0188 N.pl3   
   9 N9             4.7676     1.7657    -0.0344 N.2     
  10 C10            5.5827     2.7892    -0.0370 C.2     
  11 C11            4.8186     3.9614    -0.0231 C.2     
  12 C12            3.5124     3.6081    -0.0175 C.2     
  13 C13            5.3557     5.3694    -0.0204 C.3     
  14 F14            6.7542     5.3349    -0.0346 F       
  15 F15            4.8944     6.0467    -1.1543 F       
  16 F16            4.9172     6.0336     1.1301 F       
  17 H17           -0.9627     1.9033     0.0169 H       
  18 H18            1.2711    -1.7451    -0.0191 H       
  19 H19            3.3520    -0.3896    -0.0316 H       
  20 H20           -1.5062    -0.9071    -0.8713 H       
  21 H21            6.6614     2.7381    -0.0476 H       
  22 H22            2.6693     4.2830    -0.0112 H       
@<TRIPOS>BOND
   1    1    2 ar
   2    1    6 ar
   3    1   17 1
   4    2    3 ar
   5    2    7 1
   6    3    4 ar
   7    3   18 1
   8    4    5 ar
   9    4   19 1
  10    5    6 ar
  11    5    8 1
  12    7   20 1
  13    8    9 1
  14    8   12 1
  15    9   10 2
  16   10   11 1
  17   10   21 1
  18   11   12 2
  19   11   13 1
  20   12   22 1
  21   13   14 1
  22   13   15 1
  23   13   16 1

#	End of record

