#	Name: ASD03930014
#	Creating user name:	WinNT
#	Creation time:	15. 06. 2019 20:47

#	Modifying user name:	WinNT
#	Modification time:	15. 06. 2019 20:47

#	Program:	/corina/corina34_cracker 3.40 0067  02.08.2006

@<TRIPOS>MOLECULE
ASD03930014
  27   29    0    0    0
SMALL
NO_CHARGES


@<TRIPOS>ATOM
   1 C1            -0.0164     1.3560     0.0095 C.ar    
   2 C2             0.0021    -0.0041     0.0020 C.ar    
   3 C3            -1.1832    -0.7288    -0.0038 C.ar    
   4 C4            -2.4056    -0.1109    -0.0012 C.ar    
   5 C5            -2.4628     1.2896     0.0381 C.ar    
   6 C6            -1.2494     2.0316     0.0308 C.ar    
   7 C7            -3.6158    -1.0032    -0.0648 C.3     
   8 N8            -4.7565    -0.4090     0.6430 N.am    
   9 S9            -5.1990     1.1289     0.1688 S.o2    
  10 C10           -3.6683     2.0126     0.1104 C.ar    
  11 C11           -3.6712     3.3693     0.1322 C.ar    
  12 C12           -2.4780     4.0886     0.0894 C.ar    
  13 C13           -1.2860     3.4359     0.0407 C.ar    
  14 O14           -5.6703     1.0297    -1.1681 O.2     
  15 O15           -5.9581     1.6870     1.2325 O.2     
  16 C16           -5.4666    -1.1256     1.7053 C.3     
  17 I17            1.7788     2.4359    -0.0018 I       
  18 H18            0.9477    -0.5258     0.0002 H       
  19 H19           -1.1396    -1.8079    -0.0109 H       
  20 H20           -3.8872    -1.1621    -1.1085 H       
  21 H21           -3.3749    -1.9639     0.3902 H       
  22 H22           -4.6109     3.8991     0.1830 H       
  23 H23           -2.5001     5.1684     0.0990 H       
  24 H24           -0.3649     3.9987     0.0051 H       
  25 H25           -5.0020    -0.9043     2.6662 H       
  26 H26           -6.5090    -0.8078     1.7240 H       
  27 H27           -5.4170    -2.1979     1.5161 H       
@<TRIPOS>BOND
   1    1    2 ar
   2    1   17 1
   3    1    6 ar
   4    2    3 ar
   5    2   18 1
   6    3    4 ar
   7    3   19 1
   8    4    5 ar
   9    4    7 1
  10    5    6 ar
  11    5   10 ar
  12    6   13 ar
  13    7    8 1
  14    7   20 1
  15    7   21 1
  16    8    9 am
  17    8   16 1
  18    9   10 1
  19    9   14 2
  20    9   15 2
  21   10   11 ar
  22   11   12 ar
  23   11   22 1
  24   12   13 ar
  25   12   23 1
  26   13   24 1
  27   16   25 1
  28   16   26 1
  29   16   27 1

#	End of record

