#	Name: ASD03330574
#	Creating user name:	WinNT
#	Creation time:	15. 06. 2019 20:37

#	Modifying user name:	WinNT
#	Modification time:	15. 06. 2019 20:37

#	Program:	/corina/corina34_cracker 3.40 0067  02.08.2006

@<TRIPOS>MOLECULE
ASD03330574
  63   65    0    0    0
SMALL
NO_CHARGES


@<TRIPOS>ATOM
   1 C1            -0.5206     1.8019    -0.6120 C.2     
   2 N2            -0.6445     0.4697    -0.8535 N.pl3   
   3 C3             0.8118     2.0714    -0.5291 C.2     
   4 N4             1.4799     0.9155    -0.7362 N.2     
   5 C5             0.6140    -0.0501    -0.9375 C.2     
   6 C6             0.9470    -1.4651    -1.2098 C.ar    
   7 C7             1.4166     3.3883    -0.2619 C.2     
   8 O8             0.7060     4.3606    -0.0915 O.2     
   9 C9             3.3585     4.8246     0.0596 C.3     
  10 N10            2.7572     3.5154    -0.2061 N.am    
  11 C11            3.4202     5.0604     1.5701 C.3     
  12 C12            4.2249     3.9382     2.2289 C.3     
  13 C13            4.0961     6.4043     1.8492 C.3     
  14 C14            2.0014     5.0744     2.1425 C.3     
  15 C15            4.7523     4.8626    -0.5122 C.2     
  16 N16            5.3519     6.0464    -0.7478 N.am    
  17 O17            5.3344     3.8280    -0.7603 O.2     
  18 C18            6.6657     6.0861    -1.3949 C.3     
  19 C19           -1.9110    -0.2564    -0.9817 C.3     
  20 C20           -2.8435     0.5212    -1.9157 C.3     
  21 C21           -3.6420     1.5435    -1.1133 C.3     
  22 N22           -2.8516     2.0734    -0.0004 N.3     
  23 C23           -1.6573     2.7824    -0.4831 C.3     
  24 C24           -3.6680     2.9415     0.8586 C.3     
  25 C25            0.6270    -3.8019    -0.7577 C.ar    
  26 C26            1.5711    -4.1162    -1.7189 C.ar    
  27 C27            2.2098    -3.1126    -2.4243 C.ar    
  28 C28            1.9038    -1.7877    -2.1760 C.ar    
  29 C29            3.2369    -3.4643    -3.4695 C.3     
  30 C30            0.3117    -2.4837    -0.4994 C.ar    
  31 F31            2.5276    -0.8076    -2.8656 F       
  32 F32            3.3697    -4.8550    -3.5435 F       
  33 F33            2.8269    -2.9682    -4.7117 F       
  34 F34            4.4676    -2.8961    -3.1236 F       
  35 H35            2.7537     5.6033    -0.4052 H       
  36 H36            3.3239     2.7400    -0.3419 H       
  37 H37            5.2357     3.9282     1.8211 H       
  38 H38            4.2689     4.1061     3.3050 H       
  39 H39            3.7434     2.9807     2.0300 H       
  40 H40            3.5071     7.2065     1.4047 H       
  41 H41            4.1664     6.5589     2.9259 H       
  42 H42            5.0963     6.4049     1.4160 H       
  43 H43            1.5199     4.1170     1.9436 H       
  44 H44            2.0454     5.2424     3.2186 H       
  45 H45            1.4282     5.8739     1.6731 H       
  46 H46            4.9137     6.8721    -0.4889 H       
  47 H47            7.3874     5.5420    -0.7856 H       
  48 H48            6.5997     5.6237    -2.3797 H       
  49 H49            6.9874     7.1221    -1.5007 H       
  50 H50           -1.7228    -1.2467    -1.3965 H       
  51 H51           -2.3761    -0.3536    -0.0008 H       
  52 H52           -2.2517     1.0365    -2.6722 H       
  53 H53           -3.5289    -0.1722    -2.4032 H       
  54 H54           -3.9323     2.3647    -1.7686 H       
  55 H55           -4.5396     1.0669    -0.7194 H       
  56 H56           -1.3857     3.5639     0.2266 H       
  57 H57           -1.8662     3.2282    -1.4556 H       
  58 H58           -4.5031     2.3701     1.2639 H       
  59 H59           -3.0566     3.3215     1.6771 H       
  60 H60           -4.0501     3.7772     0.2723 H       
  61 H61            0.1320    -4.5909    -0.2109 H       
  62 H62            1.8135    -5.1499    -1.9164 H       
  63 H63           -0.4254    -2.2409     0.2517 H       
@<TRIPOS>BOND
   1    1    2 1
   2    1    3 2
   3    1   23 1
   4    2   19 1
   5    2    5 1
   6    3    4 1
   7    3    7 1
   8    4    5 2
   9    5    6 1
  10    6   30 ar
  11    6   28 ar
  12    7    8 2
  13    7   10 am
  14    9   10 1
  15    9   11 1
  16    9   15 1
  17    9   35 1
  18   10   36 1
  19   11   12 1
  20   11   13 1
  21   11   14 1
  22   12   37 1
  23   12   38 1
  24   12   39 1
  25   13   40 1
  26   13   41 1
  27   13   42 1
  28   14   43 1
  29   14   44 1
  30   14   45 1
  31   15   16 am
  32   15   17 2
  33   16   18 1
  34   16   46 1
  35   18   47 1
  36   18   48 1
  37   18   49 1
  38   19   20 1
  39   19   50 1
  40   19   51 1
  41   20   21 1
  42   20   52 1
  43   20   53 1
  44   21   22 1
  45   21   54 1
  46   21   55 1
  47   22   23 1
  48   22   24 1
  49   23   56 1
  50   23   57 1
  51   24   58 1
  52   24   59 1
  53   24   60 1
  54   25   26 ar
  55   25   30 ar
  56   25   61 1
  57   26   27 ar
  58   26   62 1
  59   27   28 ar
  60   27   29 1
  61   28   31 1
  62   29   32 1
  63   29   33 1
  64   29   34 1
  65   30   63 1

#	End of record

