#	Name: ASD01140178
#	Creating user name:	WinNT
#	Creation time:	15. 06. 2019 19:00

#	Modifying user name:	WinNT
#	Modification time:	15. 06. 2019 19:00

#	Program:	/corina/corina34_cracker 3.40 0067  02.08.2006

@<TRIPOS>MOLECULE
ASD01140178
  33   34    0    0    0
SMALL
NO_CHARGES


@<TRIPOS>ATOM
   1 C1            -0.0166     1.3749     0.0096 C.ar    
   2 C2             0.0021    -0.0041     0.0020 C.ar    
   3 C3             1.2194    -0.6831    -0.0132 C.ar    
   4 C4             2.4144     0.0345    -0.0208 C.ar    
   5 C5             2.3891     1.4134    -0.0131 C.ar    
   6 C6             1.1752     2.0868     0.0020 C.ar    
   7 C7             1.2430    -2.1660    -0.0209 C.ar    
   8 C8             0.4863    -2.8852     0.9089 C.ar    
   9 C9             0.5139    -4.2705     0.8942 C.ar    
  10 C10            1.2872    -4.9377    -0.0368 C.ar    
  11 C11            2.0373    -4.2286    -0.9584 C.ar    
  12 C12            2.0148    -2.8486    -0.9584 C.ar    
  13 O13           -0.2732    -2.2282     1.8240 O.3     
  14 C14            2.8775    -4.9659    -1.9691 C.3     
  15 O15            1.1535     3.4454     0.0100 O.3     
  16 C16           -0.1298     4.0737     0.0256 C.3     
  17 C17            0.0464     5.5935     0.0326 C.3     
  18 H18           -0.9595     1.9016     0.0169 H       
  19 H19           -0.9254    -0.5573     0.0082 H       
  20 H20            3.3591    -0.4888    -0.0322 H       
  21 H21            3.3146     1.9699    -0.0189 H       
  22 H22           -0.0691    -4.8293     1.6113 H       
  23 H23            1.3064    -6.0175    -0.0449 H       
  24 H24            2.6013    -2.2985    -1.6794 H       
  25 H25           -1.1754    -2.0453     1.5279 H       
  26 H26            2.2866    -5.1529    -2.8657 H       
  27 H27            3.7481    -4.3628    -2.2270 H       
  28 H28            3.2056    -5.9152    -1.5457 H       
  29 H29           -0.6904     3.7771    -0.8609 H       
  30 H30           -0.6738     3.7669     0.9189 H       
  31 H31           -0.9325     6.0728     0.0444 H       
  32 H32            0.6070     5.8902     0.9191 H       
  33 H33            0.5904     5.9004    -0.8608 H       
@<TRIPOS>BOND
   1    1    2 ar
   2    1    6 ar
   3    1   18 1
   4    2    3 ar
   5    2   19 1
   6    3    4 ar
   7    3    7 1
   8    4    5 ar
   9    4   20 1
  10    5    6 ar
  11    5   21 1
  12    6   15 1
  13    7    8 ar
  14    7   12 ar
  15    8    9 ar
  16    8   13 1
  17    9   10 ar
  18    9   22 1
  19   10   11 ar
  20   10   23 1
  21   11   12 ar
  22   11   14 1
  23   12   24 1
  24   13   25 1
  25   14   26 1
  26   14   27 1
  27   14   28 1
  28   15   16 1
  29   16   17 1
  30   16   29 1
  31   16   30 1
  32   17   31 1
  33   17   32 1
  34   17   33 1

#	End of record

