#	Name: ASD01882650
#	Creating user name:	WinNT
#	Creation time:	15. 06. 2019 19:45

#	Modifying user name:	WinNT
#	Modification time:	15. 06. 2019 19:45

#	Program:	/corina/corina34_cracker 3.40 0067  02.08.2006

@<TRIPOS>MOLECULE
ASD01882650
  30   31    0    0    0
SMALL
NO_CHARGES


@<TRIPOS>ATOM
   1 C1            -0.0190     1.2925    -0.6193 C.ar    
   2 C2             0.0013    -0.0336    -0.2134 C.ar    
   3 C3             1.2075    -0.6777    -0.0181 C.ar    
   4 C4             2.3984     0.0014    -0.2284 C.ar    
   5 C5             2.3781     1.3273    -0.6351 C.ar    
   6 C6             1.1719     1.9719    -0.8290 C.ar    
   7 O7            -1.2065     1.9250    -0.8170 O.3     
   8 O8             3.5858    -0.6324    -0.0353 O.3     
   9 C9             4.7702     0.1584    -0.1539 C.3     
  10 C10            5.8941    -0.4806     0.6642 C.3     
  11 C11            7.1622     0.3660     0.5372 C.3     
  12 C12            7.5803     0.4409    -0.9327 C.3     
  13 C13            6.4563     1.0799    -1.7508 C.3     
  14 C14            5.1883     0.2332    -1.6237 C.3     
  15 H15           -0.9261    -0.5625    -0.0497 H       
  16 H16            1.2233    -1.7101     0.2986 H       
  17 H17            3.3054     1.8563    -0.7985 H       
  18 H18            1.1561     3.0044    -1.1454 H       
  19 H19           -1.5529     2.3664    -0.0294 H       
  20 H20            4.5749     1.1635     0.2199 H       
  21 H21            5.5962    -0.5340     1.7113 H       
  22 H22            6.0894    -1.4857     0.2903 H       
  23 H23            6.9669     1.3711     0.9110 H       
  24 H24            7.9629    -0.0892     1.1200 H       
  25 H25            8.4837     1.0441    -1.0232 H       
  26 H26            7.7756    -0.5642    -1.3065 H       
  27 H27            6.2611     2.0850    -1.3769 H       
  28 H28            6.7542     1.1332    -2.7979 H       
  29 H29            5.3836    -0.7719    -1.9976 H       
  30 H30            4.3876     0.6885    -2.2066 H       
@<TRIPOS>BOND
   1    1    2 ar
   2    1    6 ar
   3    1    7 1
   4    2    3 ar
   5    2   15 1
   6    3    4 ar
   7    3   16 1
   8    4    5 ar
   9    4    8 1
  10    5    6 ar
  11    5   17 1
  12    6   18 1
  13    7   19 1
  14    8    9 1
  15    9   10 1
  16    9   14 1
  17    9   20 1
  18   10   11 1
  19   10   21 1
  20   10   22 1
  21   11   12 1
  22   11   23 1
  23   11   24 1
  24   12   13 1
  25   12   25 1
  26   12   26 1
  27   13   14 1
  28   13   27 1
  29   13   28 1
  30   14   29 1
  31   14   30 1

#	End of record

