#	Name: ASD01148402
#	Creating user name:	WinNT
#	Creation time:	15. 06. 2019 19:02

#	Modifying user name:	WinNT
#	Modification time:	15. 06. 2019 19:02

#	Program:	/corina/corina34_cracker 3.40 0067  02.08.2006

@<TRIPOS>MOLECULE
ASD01148402
  58   61    0    0    0
SMALL
NO_CHARGES


@<TRIPOS>ATOM
   1 C1            -0.0166     1.5738    -0.1084 C.ar    
   2 C2             0.0150     0.1913    -0.1462 C.ar    
   3 C3            -1.1671    -0.5272    -0.1474 C.ar    
   4 C4            -2.3802     0.1372    -0.1108 C.ar    
   5 C5            -2.4111     1.5185    -0.0730 C.ar    
   6 C6            -1.2303     2.2369    -0.0665 C.ar    
   7 C7            -3.7328     2.2415    -0.0331 C.3     
   8 O8            -4.7263     1.4628     0.6641 O.3     
   9 C9            -3.6453     3.5069     0.8531 C.3     
  10 C10           -4.1237     2.9996     2.2002 C.2     
  11 N11           -4.7087     1.8630     2.0201 N.2     
  12 C12           -3.9502     3.6873     3.4947 C.ar    
  13 C13           -4.4419     3.1057     4.6664 C.ar    
  14 C14           -3.2893     4.9170     3.5493 C.ar    
  15 C15           -3.1275     5.5585     4.7565 C.ar    
  16 C16           -3.6241     4.9797     5.9272 C.ar    
  17 C17           -4.2801     3.7469     5.8733 C.ar    
  18 C18           -3.4504     5.6679     7.2225 C.2     
  19 O19           -4.4215     6.0739     7.8299 O.2     
  20 N20           -2.2149     5.8456     7.7309 N.am    
  21 C21           -4.8162     3.1228     7.1359 C.3     
  22 C22           -4.2045     2.5927    -1.4456 C.3     
  23 F23           -4.3402     1.4204    -2.1969 F       
  24 F24           -5.4388     3.2474    -1.3757 F       
  25 F25           -3.2656     3.4315    -2.0557 F       
  26 Cl26          -1.1285    -2.2621    -0.1954 Cl      
  27 Cl27           1.4663     2.4763    -0.1062 Cl      
  28 C28           -2.0306     6.6420     8.9467 C.3     
  29 C29           -2.1243     5.7447    10.1539 C.ar    
  30 N30           -3.3061     5.4627    10.6660 N.ar    
  31 C31           -1.1489     5.2907     7.1208 C.2     
  32 C32           -3.4364     4.6825    11.7213 C.ar    
  33 C33           -2.3274     4.1291    12.3324 C.ar    
  34 C34           -1.0674     4.4031    11.8221 C.ar    
  35 C35           -0.9707     5.2225    10.7080 C.ar    
  36 O36           -1.2902     4.7022     6.0676 O.2     
  37 O37            0.0722     5.3886     7.6785 O.3     
  38 C38            1.1741     4.7671     6.9659 C.3     
  39 H39            0.9621    -0.3268    -0.1751 H       
  40 H40           -3.3032    -0.4237    -0.1121 H       
  41 H41           -1.2550     3.3162    -0.0370 H       
  42 H42           -2.6176     3.8643     0.9170 H       
  43 H43           -4.3054     4.2888     0.4775 H       
  44 H44           -4.9492     2.1532     4.6247 H       
  45 H45           -2.9051     5.3642     2.6444 H       
  46 H46           -2.6163     6.5089     4.7988 H       
  47 H47           -5.8077     3.5236     7.3467 H       
  48 H48           -4.8807     2.0423     7.0081 H       
  49 H49           -4.1479     3.3512     7.9662 H       
  50 H50           -1.0507     7.1189     8.9236 H       
  51 H51           -2.8056     7.4065     9.0012 H       
  52 H52           -4.4211     4.4740    12.1127 H       
  53 H53           -2.4405     3.4916    13.1968 H       
  54 H54           -0.1829     3.9848    12.2792 H       
  55 H55           -0.0056     5.4567    10.2837 H       
  56 H56            0.9838     3.6987     6.8631 H       
  57 H57            1.2668     5.2164     5.9772 H       
  58 H58            2.0988     4.9195     7.5225 H       
@<TRIPOS>BOND
   1    1    2 ar
   2    1   27 1
   3    1    6 ar
   4    2    3 ar
   5    2   39 1
   6    3    4 ar
   7    3   26 1
   8    4    5 ar
   9    4   40 1
  10    5    6 ar
  11    5    7 1
  12    6   41 1
  13    7    8 1
  14    7    9 1
  15    7   22 1
  16    8   11 1
  17    9   10 1
  18    9   42 1
  19    9   43 1
  20   10   11 2
  21   10   12 1
  22   12   13 ar
  23   12   14 ar
  24   13   17 ar
  25   13   44 1
  26   14   15 ar
  27   14   45 1
  28   15   16 ar
  29   15   46 1
  30   16   17 ar
  31   16   18 1
  32   17   21 1
  33   18   19 2
  34   18   20 am
  35   20   28 1
  36   20   31 am
  37   21   47 1
  38   21   48 1
  39   21   49 1
  40   22   23 1
  41   22   24 1
  42   22   25 1
  43   28   29 1
  44   28   50 1
  45   28   51 1
  46   29   30 ar
  47   29   35 ar
  48   30   32 ar
  49   31   36 2
  50   31   37 1
  51   32   33 ar
  52   32   52 1
  53   33   34 ar
  54   33   53 1
  55   34   35 ar
  56   34   54 1
  57   35   55 1
  58   37   38 1
  59   38   56 1
  60   38   57 1
  61   38   58 1

#	End of record

