#	Name: ASD01208965
#	Creating user name:	WinNT
#	Creation time:	15. 06. 2019 19:10

#	Modifying user name:	WinNT
#	Modification time:	15. 06. 2019 19:10

#	Program:	/corina/corina34_cracker 3.40 0067  02.08.2006

@<TRIPOS>MOLECULE
ASD01208965
  48   51    0    0    0
SMALL
NO_CHARGES


@<TRIPOS>ATOM
   1 C1             0.6106     1.3728    -2.3277 C.3     
   2 C2             0.2591    -0.1218    -2.4290 C.3     
   3 C3            -0.6713    -0.5204    -1.2816 C.3     
   4 C4            -0.8606    -2.0386    -1.2824 C.3     
   5 C5            -1.6330    -2.4492    -0.0553 C.2     
   6 N6            -1.0965    -2.2741     1.1686 N.am    
   7 C7            -1.7625    -2.7469     2.2939 C.2     
   8 N8            -1.6012    -2.4377    -2.4818 N.pl3   
   9 C9            -2.9386    -2.3690    -2.6486 C.2     
  10 C10           -3.2237    -2.8294    -3.8887 C.2     
  11 C11           -2.0194    -3.1919    -4.5006 C.2     
  12 N12           -1.0456    -2.9523    -3.6603 N.2     
  13 O13           -2.7376    -2.9371    -0.1690 O.2     
  14 S14           -1.1994    -2.5944     3.9009 S.3     
  15 C15           -2.6306    -3.4334     4.4936 C.2     
  16 C16           -3.3914    -3.7475     3.4420 C.2     
  17 N17           -2.9027    -3.3623     2.2771 N.2     
  18 Cl18          -2.9888    -3.7902     6.1543 Cl      
  19 C19           -0.4569    -0.3155    -3.7816 C.3     
  20 C20            0.0336     0.8734    -4.6447 C.3     
  21 C21            0.0958     2.0353    -3.6223 C.3     
  22 C22           -5.0773    -1.3551    -5.4317 C.3     
  23 C23           -6.4455    -1.0924    -6.0639 C.3     
  24 C24           -6.0441    -0.3649    -4.7792 C.3     
  25 S25           -4.8286    -2.9508    -4.6058 S.o2    
  26 O26           -4.7068    -3.9941    -5.5629 O.2     
  27 O27           -5.7016    -3.0770    -3.4917 O.2     
  28 H28            0.1183     1.8143    -1.4611 H       
  29 H29            1.6905     1.4979    -2.2481 H       
  30 H30            1.1684    -0.7221    -2.3977 H       
  31 H31           -0.2326    -0.2094    -0.3334 H       
  32 H32           -1.6378    -0.0336    -1.4118 H       
  33 H33            0.1141    -2.5263    -1.2782 H       
  34 H34           -0.2457    -1.8182     1.2645 H       
  35 H35           -3.6533    -2.0110    -1.9224 H       
  36 H36           -1.9115    -3.5956    -5.4965 H       
  37 H37           -4.3317    -4.2703     3.5368 H       
  38 H38           -0.1651    -1.2625    -4.2356 H       
  39 H39           -1.5381    -0.2713    -3.6506 H       
  40 H40            1.0213     0.6691    -5.0579 H       
  41 H41           -0.6801     1.0950    -5.4382 H       
  42 H42           -0.8961     2.4591    -3.4656 H       
  43 H43            0.7911     2.8038    -3.9601 H       
  44 H44           -4.2024    -0.9460    -5.9371 H       
  45 H45           -6.4710    -0.5102    -6.9851 H       
  46 H46           -7.1963    -1.8785    -5.9835 H       
  47 H47           -6.5308    -0.6724    -3.8536 H       
  48 H48           -5.8054     0.6959    -4.8552 H       
@<TRIPOS>BOND
   1    1    2 1
   2    1   21 1
   3    1   28 1
   4    1   29 1
   5    2    3 1
   6    2   19 1
   7    2   30 1
   8    3    4 1
   9    3   31 1
  10    3   32 1
  11    4    5 1
  12    4    8 1
  13    4   33 1
  14    5    6 am
  15    5   13 2
  16    6    7 1
  17    6   34 1
  18    7   14 1
  19    7   17 2
  20    8    9 1
  21    8   12 1
  22    9   10 2
  23    9   35 1
  24   10   11 1
  25   10   25 1
  26   11   12 2
  27   11   36 1
  28   14   15 1
  29   15   16 2
  30   15   18 1
  31   16   17 1
  32   16   37 1
  33   19   20 1
  34   19   38 1
  35   19   39 1
  36   20   21 1
  37   20   40 1
  38   20   41 1
  39   21   42 1
  40   21   43 1
  41   22   23 1
  42   22   25 1
  43   22   24 1
  44   22   44 1
  45   23   24 1
  46   23   45 1
  47   23   46 1
  48   24   47 1
  49   24   48 1
  50   25   26 2
  51   25   27 2

#	End of record

