#	Name: ASD02500198
#	Creating user name:	WinNT
#	Creation time:	15. 06. 2019 20:22

#	Modifying user name:	WinNT
#	Modification time:	15. 06. 2019 20:22

#	Program:	/corina/corina34_cracker 3.40 0067  02.08.2006

@<TRIPOS>MOLECULE
ASD02500198
  63   67    0    0    0
SMALL
NO_CHARGES


@<TRIPOS>ATOM
   1 N1            -3.2634     5.6977    -0.3111 N.ar    
   2 C2            -4.3477     6.3731    -0.6050 C.ar    
   3 C3            -5.5194     6.2379     0.1368 C.ar    
   4 C4            -5.5574     5.3831     1.2013 C.ar    
   5 C5            -4.3912     4.6591     1.5137 C.ar    
   6 C6            -4.3545     3.7626     2.5934 C.ar    
   7 C7            -3.2068     3.0812     2.8635 C.ar    
   8 C8            -2.0675     3.2620     2.0824 C.ar    
   9 C9            -2.0679     4.1231     1.0284 C.ar    
  10 C10           -3.2335     4.8448     0.7179 C.ar    
  11 S11           -0.6127     4.3332     0.0574 S.o2    
  12 O12           -0.3846     5.7333    -0.0259 O.2     
  13 O13            0.3468     3.4185     0.5693 O.2     
  14 N14           -0.9702     3.8255    -1.4778 N.am    
  15 C15           -1.2099     2.4786    -1.7265 C.ar    
  16 C16           -0.8501     1.9236    -2.9517 C.ar    
  17 C17           -1.0860     0.5912    -3.2008 C.ar    
  18 C18           -1.6877    -0.2056    -2.2221 C.ar    
  19 C19           -2.0478     0.3545    -0.9932 C.ar    
  20 C20           -1.8040     1.6867    -0.7479 C.ar    
  21 C21           -0.2020     2.7833    -4.0062 C.3     
  22 C22           -1.9425    -1.6345    -2.4862 C.2     
  23 O23           -2.3702    -1.9858    -3.5689 O.2     
  24 N24           -1.7013    -2.5504    -1.5274 N.am    
  25 C25           -1.8631    -3.9844    -1.8052 C.3     
  26 C26           -0.5497    -4.7005    -1.4667 C.3     
  27 N27           -0.1197    -4.2831    -0.1248 N.am    
  28 C28            0.0421    -2.8491     0.1530 C.3     
  29 C29           -1.2658    -2.1333    -0.1871 C.3     
  30 C30            0.1215    -5.1991     0.8340 C.2     
  31 C31            0.6627    -4.7749     2.1412 C.ar    
  32 C32            0.0198    -5.1530     3.3236 C.ar    
  33 C33            0.5343    -4.7506     4.5449 C.ar    
  34 C34            1.6808    -3.9764     4.5934 C.ar    
  35 C35            2.3197    -3.6004     3.4247 C.ar    
  36 C36            1.8222    -3.9990     2.2020 C.ar    
  37 O37           -0.1063    -6.3744     0.6230 O.2     
  38 F38           -0.0837    -5.1136     5.6901 F       
  39 F39           -1.0997    -5.9078     3.2751 F       
  40 H40           -4.3323     7.0528    -1.4442 H       
  41 H41           -6.3967     6.8087    -0.1297 H       
  42 H42           -6.4570     5.2662     1.7874 H       
  43 H43           -5.2311     3.6145     3.2065 H       
  44 H44           -3.1794     2.3917     3.6943 H       
  45 H45           -1.1692     2.7104     2.3174 H       
  46 H46           -1.0123     4.4677    -2.2035 H       
  47 H47           -0.8070     0.1613    -4.1515 H       
  48 H48           -2.5127    -0.2584    -0.2352 H       
  49 H49           -2.0776     2.1190     0.2032 H       
  50 H50            0.8806     2.7562    -3.8822 H       
  51 H51           -0.4641     2.4055    -4.9945 H       
  52 H52           -0.5537     3.8100    -3.9046 H       
  53 H53           -2.6684    -4.3875    -1.1910 H       
  54 H54           -2.0970    -4.1286    -2.8600 H       
  55 H55           -0.7067    -5.7790    -1.4816 H       
  56 H56            0.2133    -4.4293    -2.1962 H       
  57 H57            0.2761    -2.7049     1.2078 H       
  58 H58            0.8474    -2.4460    -0.4612 H       
  59 H59           -1.1054    -1.0553    -0.1736 H       
  60 H60           -2.0276    -2.4015     0.5450 H       
  61 H61            2.0785    -3.6641     5.5477 H       
  62 H62            3.2136    -2.9960     3.4707 H       
  63 H63            2.3261    -3.7077     1.2923 H       
@<TRIPOS>BOND
   1    1    2 ar
   2    1   10 ar
   3    2    3 ar
   4    2   40 1
   5    3    4 ar
   6    3   41 1
   7    4    5 ar
   8    4   42 1
   9    5    6 ar
  10    5   10 ar
  11    6    7 ar
  12    6   43 1
  13    7    8 ar
  14    7   44 1
  15    8    9 ar
  16    8   45 1
  17    9   10 ar
  18    9   11 1
  19   11   12 2
  20   11   13 2
  21   11   14 am
  22   14   15 1
  23   14   46 1
  24   15   16 ar
  25   15   20 ar
  26   16   17 ar
  27   16   21 1
  28   17   18 ar
  29   17   47 1
  30   18   19 ar
  31   18   22 1
  32   19   20 ar
  33   19   48 1
  34   20   49 1
  35   21   50 1
  36   21   51 1
  37   21   52 1
  38   22   23 2
  39   22   24 am
  40   24   25 1
  41   24   29 1
  42   25   26 1
  43   25   53 1
  44   25   54 1
  45   26   27 1
  46   26   55 1
  47   26   56 1
  48   27   28 1
  49   27   30 am
  50   28   29 1
  51   28   57 1
  52   28   58 1
  53   29   59 1
  54   29   60 1
  55   30   31 1
  56   30   37 2
  57   31   32 ar
  58   31   36 ar
  59   32   33 ar
  60   32   39 1
  61   33   34 ar
  62   33   38 1
  63   34   35 ar
  64   34   61 1
  65   35   36 ar
  66   35   62 1
  67   36   63 1

#	End of record

