#	Name: ASD02039275
#	Creating user name:	WinNT
#	Creation time:	15. 06. 2019 20:18

#	Modifying user name:	WinNT
#	Modification time:	15. 06. 2019 20:18

#	Program:	/corina/corina34_cracker 3.40 0067  02.08.2006

@<TRIPOS>MOLECULE
ASD02039275
  55   58    0    0    0
SMALL
NO_CHARGES


@<TRIPOS>ATOM
   1 C1            -0.1934     0.8761    -0.9241 C.ar    
   2 C2            -0.0048    -0.4941    -0.9107 C.ar    
   3 C3            -1.0454    -1.3442    -1.2382 C.ar    
   4 C4            -2.2808    -0.8277    -1.5810 C.ar    
   5 C5            -2.4756     0.5544    -1.5957 C.ar    
   6 C6            -1.4240     1.4038    -1.2596 C.ar    
   7 C7            -3.7986     1.1162    -1.9631 C.ar    
   8 C8            -4.4097     2.0701    -1.1544 C.ar    
   9 N9            -5.5853     2.5715    -1.4770 N.ar    
  10 C10           -6.2272     2.1942    -2.5704 C.ar    
  11 C11           -5.6807     1.2460    -3.4276 C.ar    
  12 C12           -4.4474     0.6989    -3.1304 C.ar    
  13 C13            0.9459     1.7950    -0.5654 C.3     
  14 N14            1.7862     2.0147    -1.7452 N.am    
  15 C15            1.4222     3.0436    -2.7224 C.3     
  16 C16            2.8940     1.2701    -1.9316 C.2     
  17 C17            3.2046     0.1616    -1.0036 C.2     
  18 N18            4.1806    -0.7095    -1.1377 N.2     
  19 C19            2.5628     4.0584    -2.8470 C.3     
  20 N20            2.5422    -0.1308     0.1305 N.2     
  21 C21            3.1234    -1.1763     0.6614 C.2     
  22 N22            4.1449    -1.5264    -0.1419 N.pl3   
  23 O23            3.6379     1.5099    -2.8626 O.2     
  24 C24            5.0616    -2.6477     0.0786 C.3     
  25 F25           -3.2971    -1.6583    -1.9013 F       
  26 O26           -7.4353     2.7398    -2.8590 O.3     
  27 C27           -7.9457     3.7085    -1.9407 C.3     
  28 C28            2.2072     5.0843    -3.9262 C.3     
  29 O29            1.9663     4.4091    -5.1624 O.3     
  30 C30            0.8797     3.4820    -5.1189 C.3     
  31 C31            1.1821     2.3918    -4.0876 C.3     
  32 H32            0.9590    -0.9017    -0.6439 H       
  33 H33           -0.8923    -2.4133    -1.2265 H       
  34 H34           -1.5692     2.4740    -1.2690 H       
  35 H35           -3.9157     2.4027    -0.2534 H       
  36 H36           -6.2122     0.9438    -4.3179 H       
  37 H37           -3.9993    -0.0396    -3.7786 H       
  38 H38            0.5481     2.7492    -0.2199 H       
  39 H39            1.5426     1.3420     0.2264 H       
  40 H40            0.5155     3.5526    -2.3954 H       
  41 H41            2.7037     4.5670    -1.8932 H       
  42 H42            3.4815     3.5415    -3.1244 H       
  43 H43            2.8368    -1.6676     1.5795 H       
  44 H44            4.6610    -3.5433    -0.3962 H       
  45 H45            6.0344    -2.4119    -0.3529 H       
  46 H46            5.1715    -2.8221     1.1489 H       
  47 H47           -8.0576     3.2528    -0.9569 H       
  48 H48           -7.2533     4.5478    -1.8757 H       
  49 H49           -8.9155     4.0637    -2.2890 H       
  50 H50            1.3110     5.6289    -3.6288 H       
  51 H51            3.0339     5.7840    -4.0492 H       
  52 H52           -0.0338     4.0056    -4.8371 H       
  53 H53            0.7501     3.0275    -6.1011 H       
  54 H54            2.0728     1.8412    -4.3901 H       
  55 H55            0.3355     1.7084    -4.0211 H       
@<TRIPOS>BOND
   1    1    2 ar
   2    1   13 1
   3    1    6 ar
   4    2    3 ar
   5    2   32 1
   6    3    4 ar
   7    3   33 1
   8    4    5 ar
   9    4   25 1
  10    5    6 ar
  11    5    7 1
  12    6   34 1
  13    7    8 ar
  14    7   12 ar
  15    8    9 ar
  16    8   35 1
  17    9   10 ar
  18   10   11 ar
  19   10   26 1
  20   11   12 ar
  21   11   36 1
  22   12   37 1
  23   13   14 1
  24   13   38 1
  25   13   39 1
  26   14   15 1
  27   14   16 am
  28   15   19 1
  29   15   31 1
  30   15   40 1
  31   16   17 1
  32   16   23 2
  33   17   18 2
  34   17   20 1
  35   18   22 1
  36   19   28 1
  37   19   41 1
  38   19   42 1
  39   20   21 2
  40   21   22 1
  41   21   43 1
  42   22   24 1
  43   24   44 1
  44   24   45 1
  45   24   46 1
  46   26   27 1
  47   27   47 1
  48   27   48 1
  49   27   49 1
  50   28   29 1
  51   28   50 1
  52   28   51 1
  53   29   30 1
  54   30   31 1
  55   30   52 1
  56   30   53 1
  57   31   54 1
  58   31   55 1

#	End of record

