#	Name: ASD04590564
#	Creating user name:	WinNT
#	Creation time:	15. 06. 2019 20:51

#	Modifying user name:	WinNT
#	Modification time:	15. 06. 2019 20:51

#	Program:	/corina/corina34_cracker 3.40 0067  02.08.2006

@<TRIPOS>MOLECULE
ASD04590564
  68   73    0    0    0
SMALL
NO_CHARGES


@<TRIPOS>ATOM
   1 N1             2.2726     1.4607    -0.0340 N.ar    
   2 C2             2.4120     0.1396    -0.0511 C.ar    
   3 C3             1.3006    -0.6695    -0.0250 C.ar    
   4 C4             0.0328    -0.0921     0.0001 C.ar    
   5 C5            -0.0744     1.2849     0.0099 C.ar    
   6 C6             1.0899     2.0462    -0.0050 C.ar    
   7 C7             3.8145    -0.4079    -0.1160 C.3     
   8 C8             3.8548    -1.8583     0.3619 C.3     
   9 N9             2.7665    -2.5882    -0.3091 N.am    
  10 C10            1.3919    -2.1737    -0.0076 C.3     
  11 N11            1.0070     3.4357     0.0113 N.pl3   
  12 C12            2.1603     4.1974     0.1085 C.ar    
  13 N13            2.0658     5.5137     0.0142 N.ar    
  14 C14            3.1501     6.2784     0.1029 C.ar    
  15 C15            4.3982     5.6538     0.2994 C.ar    
  16 C16            4.4477     4.2667     0.3929 C.ar    
  17 N17            3.3200     3.5815     0.2984 N.ar    
  18 N18            3.3480     7.6355     0.0429 N.pl3   
  19 C19            4.6933     7.9354     0.1937 C.ar    
  20 C20            5.3976     6.7286     0.3581 C.ar    
  21 C21            5.4046     9.1263     0.2088 C.ar    
  22 N22            6.7128     9.1263     0.3737 N.ar    
  23 C23            7.4078     8.0098     0.5312 C.ar    
  24 C24            6.7793     6.7757     0.5300 C.ar    
  25 C25            2.2876     8.6270    -0.1537 C.3     
  26 C26            1.2727     8.5210     0.9864 C.3     
  27 C27            0.1652     9.5565     0.7811 C.3     
  28 C28           -0.5370     9.2946    -0.5528 C.3     
  29 C29            0.4779     9.4005    -1.6928 C.3     
  30 C30            1.5854     8.3651    -1.4875 C.3     
  31 C31            3.0227    -3.5964    -1.1660 C.2     
  32 C32            1.8852    -4.3231    -1.8362 C.3     
  33 O33            4.1686    -3.9188    -1.3979 O.2     
  34 O34            2.4085    -5.3414    -2.6913 O.3     
  35 C35           -1.6445    10.3301    -0.7580 C.3     
  36 O36            8.7541     8.0761     0.6963 O.3     
  37 C37            9.3453     9.3770     0.6889 C.3     
  38 H38           -0.8519    -0.7113     0.0114 H       
  39 H39           -1.0434     1.7613     0.0285 H       
  40 H40            4.1710    -0.3594    -1.1450 H       
  41 H41            4.4648     0.1962     0.5166 H       
  42 H42            4.8140    -2.3057     0.1012 H       
  43 H43            3.7118    -1.8946     1.4418 H       
  44 H44            1.1096    -2.5429     0.9783 H       
  45 H45            0.7159    -2.5868    -0.7563 H       
  46 H46            0.1419     3.8707    -0.0454 H       
  47 H47            5.3889     3.7589     0.5430 H       
  48 H48            4.8816    10.0629     0.0838 H       
  49 H49            7.3493     5.8674     0.6586 H       
  50 H50            2.7218     9.6267    -0.1618 H       
  51 H51            0.8384     7.5213     0.9945 H       
  52 H52            1.7729     8.7076     1.9367 H       
  53 H53           -0.5578     9.4811     1.5933 H       
  54 H54            0.5995    10.5562     0.7730 H       
  55 H55           -0.9713     8.2949    -0.5446 H       
  56 H56           -0.0224     9.2140    -2.6431 H       
  57 H57            0.9121    10.4003    -1.7009 H       
  58 H58            2.3084     8.4405    -2.2997 H       
  59 H59            1.1511     7.3653    -1.4794 H       
  60 H60            1.2475    -4.7776    -1.0780 H       
  61 H61            1.3010    -3.6175    -2.4268 H       
  62 H62            1.7309    -5.8510    -3.1564 H       
  63 H63           -1.2102    11.3298    -0.7662 H       
  64 H64           -2.1448    10.1435    -1.7083 H       
  65 H65           -2.3675    10.2546     0.0542 H       
  66 H66            9.1431     9.8626    -0.2658 H       
  67 H67            8.9215     9.9734     1.4969 H       
  68 H68           10.4224     9.2874     0.8300 H       
@<TRIPOS>BOND
   1    1    2 ar
   2    1    6 ar
   3    2    3 ar
   4    2    7 1
   5    3    4 ar
   6    3   10 1
   7    4    5 ar
   8    4   38 1
   9    5    6 ar
  10    5   39 1
  11    6   11 1
  12    7    8 1
  13    7   40 1
  14    7   41 1
  15    8    9 1
  16    8   42 1
  17    8   43 1
  18    9   10 1
  19    9   31 am
  20   10   44 1
  21   10   45 1
  22   11   12 1
  23   11   46 1
  24   12   13 ar
  25   12   17 ar
  26   13   14 ar
  27   14   15 ar
  28   14   18 1
  29   15   16 ar
  30   15   20 1
  31   16   17 ar
  32   16   47 1
  33   18   19 1
  34   18   25 1
  35   19   20 ar
  36   19   21 ar
  37   20   24 ar
  38   21   22 ar
  39   21   48 1
  40   22   23 ar
  41   23   24 ar
  42   23   36 1
  43   24   49 1
  44   25   26 1
  45   25   30 1
  46   25   50 1
  47   26   27 1
  48   26   51 1
  49   26   52 1
  50   27   28 1
  51   27   53 1
  52   27   54 1
  53   28   29 1
  54   28   35 1
  55   28   55 1
  56   29   30 1
  57   29   56 1
  58   29   57 1
  59   30   58 1
  60   30   59 1
  61   31   32 1
  62   31   33 2
  63   32   34 1
  64   32   60 1
  65   32   61 1
  66   34   62 1
  67   35   63 1
  68   35   64 1
  69   35   65 1
  70   36   37 1
  71   37   66 1
  72   37   67 1
  73   37   68 1

#	End of record

