#	Name: ASD03540268
#	Creating user name:	WinNT
#	Creation time:	15. 06. 2019 20:42

#	Modifying user name:	WinNT
#	Modification time:	15. 06. 2019 20:42

#	Program:	/corina/corina34_cracker 3.40 0067  02.08.2006

@<TRIPOS>MOLECULE
ASD03540268
  40   43    0    0    0
SMALL
NO_CHARGES


@<TRIPOS>ATOM
   1 C1            -0.0161     1.3365     0.0094 C.2     
   2 N2             0.0021    -0.0041     0.0020 N.am    
   3 C3             1.1931    -0.7075    -0.0132 C.2     
   4 C4             2.3928    -0.0051    -0.0209 C.2     
   5 C5             2.3194     1.4734    -0.0115 C.2     
   6 N6             1.1110     2.0661     0.0025 N.am    
   7 C7             3.5129    -0.8381    -0.0361 C.2     
   8 C8             3.2256    -2.1516    -0.0404 C.2     
   9 S9             1.4874    -2.3902    -0.0250 S.3     
  10 C10            4.2183    -3.2259    -0.0565 C.2     
  11 O11            5.4048    -2.9577    -0.0671 O.2     
  12 O12            3.8179    -4.5143    -0.0595 O.3     
  13 C13            1.0243     3.5285     0.0113 C.3     
  14 C14            1.0082     4.0223     1.4350 C.ar    
  15 C15            2.1983     4.3190     2.0747 C.ar    
  16 C16            2.1900     4.7711     3.3785 C.ar    
  17 C17            0.9786     4.9290     4.0510 C.ar    
  18 C18           -0.2179     4.6286     3.4006 C.ar    
  19 C19           -0.1970     4.1823     2.0950 C.ar    
  20 O20            1.6720     6.0925     7.2786 O.3     
  21 N21            1.9967     5.7281     6.1713 N.2     
  22 C22            0.9628     5.4133     5.4503 C.2     
  23 N23           -0.1592     5.6181     6.2408 N.am    
  24 C24            0.3377     6.0591     7.4215 C.2     
  25 O25           -0.2980     6.3641     8.4124 O.2     
  26 O26            3.3358     2.1426    -0.0175 O.2     
  27 O27           -1.0880     1.9101     0.0175 O.2     
  28 C28           -1.2652    -0.7390     0.0107 C.3     
  29 H29            4.5244    -0.4597    -0.0438 H       
  30 H30            4.5448    -5.1520    -0.0704 H       
  31 H31            1.8863     3.9467    -0.5086 H       
  32 H32            0.1095     3.8412    -0.4921 H       
  33 H33            3.1359     4.1963     1.5529 H       
  34 H34            3.1198     5.0018     3.8771 H       
  35 H35           -1.1591     4.7487     3.9164 H       
  36 H36           -1.1232     3.9535     1.5888 H       
  37 H37           -1.0888     5.4773     6.0021 H       
  38 H38           -2.0950    -0.0322     0.0228 H       
  39 H39           -1.3307    -1.3609    -0.8820 H       
  40 H40           -1.3130    -1.3705     0.8978 H       
@<TRIPOS>BOND
   1    1    2 am
   2    1    6 am
   3    1   27 2
   4    2    3 1
   5    2   28 1
   6    3    4 2
   7    3    9 1
   8    4    5 1
   9    4    7 1
  10    5    6 am
  11    5   26 2
  12    6   13 1
  13    7    8 2
  14    7   29 1
  15    8    9 1
  16    8   10 1
  17   10   11 2
  18   10   12 1
  19   12   30 1
  20   13   14 1
  21   13   31 1
  22   13   32 1
  23   14   15 ar
  24   14   19 ar
  25   15   16 ar
  26   15   33 1
  27   16   17 ar
  28   16   34 1
  29   17   18 ar
  30   17   22 1
  31   18   19 ar
  32   18   35 1
  33   19   36 1
  34   20   21 1
  35   20   24 1
  36   21   22 2
  37   22   23 1
  38   23   24 am
  39   23   37 1
  40   24   25 2
  41   28   38 1
  42   28   39 1
  43   28   40 1

#	End of record

