#	Name: ASD01120268
#	Creating user name:	WinNT
#	Creation time:	15. 06. 2019 18:59

#	Modifying user name:	WinNT
#	Modification time:	15. 06. 2019 18:59

#	Program:	/corina/corina34_cracker 3.40 0067  02.08.2006

@<TRIPOS>MOLECULE
ASD01120268
  39   40    0    0    0
SMALL
NO_CHARGES


@<TRIPOS>ATOM
   1 C1            -0.0187     1.5258     0.0104 C.3     
   2 C2             0.0021    -0.0041     0.0020 C.3     
   3 O3            -1.3601    -0.5067     0.0123 O.3     
   4 C4            -1.5187    -1.8457     0.0066 C.2     
   5 O5            -0.5446    -2.5731    -0.0066 O.2     
   6 C6            -2.8682    -2.4256     0.0164 C.2     
   7 N7            -4.0489    -1.7076     0.0311 N.pl3   
   8 C8            -5.1033    -2.5895     0.0366 C.ar    
   9 C9            -4.5642    -3.8909     0.0251 C.ar    
  10 C10           -3.1554    -3.7544     0.0066 C.2     
  11 C11           -2.1536    -4.8801    -0.0110 C.3     
  12 C12           -1.8340    -5.2558    -1.4593 C.3     
  13 C13           -0.7265    -6.3112    -1.4799 C.3     
  14 C14           -3.0888    -5.8201    -2.1286 C.3     
  15 C15           -5.4237    -4.9975     0.0276 C.ar    
  16 C16           -6.7747    -4.8075     0.0413 C.ar    
  17 C17           -7.3089    -3.5249     0.0522 C.ar    
  18 C18           -6.4854    -2.4216     0.0508 C.ar    
  19 N19           -7.0678    -1.0608     0.0634 N.pl3   
  20 O20           -8.2771    -0.9160     0.0751 O.2     
  21 O21           -6.3376    -0.0859     0.0621 O.2     
  22 H22            1.0039     1.9031     0.0027 H       
  23 H23           -0.5459     1.8868    -0.8726 H       
  24 H24           -0.5289     1.8773     0.9072 H       
  25 H25            0.5123    -0.3556    -0.8948 H       
  26 H26            0.5293    -0.3651     0.8851 H       
  27 H27           -4.1216    -0.7403     0.0368 H       
  28 H28           -1.2404    -4.5617     0.4918 H       
  29 H29           -2.5699    -5.7451     0.5053 H       
  30 H30           -1.5014    -4.3695    -1.9996 H       
  31 H31           -1.0591    -7.1975    -0.9396 H       
  32 H32           -0.4988    -6.5788    -2.5117 H       
  33 H33            0.1674    -5.9091    -1.0031 H       
  34 H34           -2.8611    -6.0878    -3.1604 H       
  35 H35           -3.4214    -6.7064    -1.5883 H       
  36 H36           -3.8778    -5.0683    -2.1139 H       
  37 H37           -5.0178    -5.9983     0.0185 H       
  38 H38           -7.4351    -5.6621     0.0433 H       
  39 H39           -8.3806    -3.3921     0.0626 H       
@<TRIPOS>BOND
   1    1    2 1
   2    1   22 1
   3    1   23 1
   4    1   24 1
   5    2    3 1
   6    2   25 1
   7    2   26 1
   8    3    4 1
   9    4    5 2
  10    4    6 1
  11    6    7 1
  12    6   10 2
  13    7    8 1
  14    7   27 1
  15    8    9 ar
  16    8   18 ar
  17    9   10 1
  18    9   15 ar
  19   10   11 1
  20   11   12 1
  21   11   28 1
  22   11   29 1
  23   12   13 1
  24   12   14 1
  25   12   30 1
  26   13   31 1
  27   13   32 1
  28   13   33 1
  29   14   34 1
  30   14   35 1
  31   14   36 1
  32   15   16 ar
  33   15   37 1
  34   16   17 ar
  35   16   38 1
  36   17   18 ar
  37   17   39 1
  38   18   19 1
  39   19   20 2
  40   19   21 2

#	End of record

