#	Name: ASD01915889
#	Creating user name:	WinNT
#	Creation time:	15. 06. 2019 20:06

#	Modifying user name:	WinNT
#	Modification time:	15. 06. 2019 20:06

#	Program:	/corina/corina34_cracker 3.40 0067  02.08.2006

@<TRIPOS>MOLECULE
ASD01915889
  27   29    0    0    0
SMALL
NO_CHARGES


@<TRIPOS>ATOM
   1 C1            -0.0176     1.3409    -0.3471 C.2     
   2 C2             0.0081    -0.0375    -0.2399 C.2     
   3 C3            -1.2959    -0.8172    -0.2566 C.3     
   4 C4            -2.3968     0.0553     0.3428 C.3     
   5 N5            -2.4120     1.4035    -0.2093 N.am    
   6 C6            -1.2726     2.0828    -0.4849 C.2     
   7 O7            -1.2913     3.2522    -0.8226 O.2     
   8 S8             1.6271     1.9350    -0.2938 S.3     
   9 C9             2.2094     0.3339    -0.1371 C.2     
  10 N10            1.2216    -0.5131    -0.1314 N.2     
  11 H11           -3.2657     1.8279    -0.3881 H       
  12 O12            3.5149    -0.0045    -0.0341 O.3     
  13 C13            4.4411     0.9847    -0.1425 C.ar    
  14 C14            4.8060     1.7222     0.9770 C.ar    
  15 C15            5.7492     2.7277     0.8630 C.ar    
  16 C16            6.3275     2.9981    -0.3634 C.ar    
  17 C17            5.9649     2.2653    -1.4785 C.ar    
  18 C18            5.0277     1.2560    -1.3696 C.ar    
  19 F19            4.2404     1.4579     2.1751 F       
  20 H20           -1.5535    -1.0767    -1.2834 H       
  21 H21           -1.1862    -1.7256     0.3358 H       
  22 H22           -3.3614    -0.4143     0.1504 H       
  23 H23           -2.2477     0.1184     1.4207 H       
  24 H24            6.0336     3.3020     1.7322 H       
  25 H25            7.0637     3.7835    -0.4506 H       
  26 H26            6.4183     2.4793    -2.4351 H       
  27 H27            4.7457     0.6842    -2.2414 H       
@<TRIPOS>BOND
   1    1    2 2
   2    1    8 1
   3    1    6 1
   4    2    3 1
   5    2   10 1
   6    3    4 1
   7    3   20 1
   8    3   21 1
   9    4    5 1
  10    4   22 1
  11    4   23 1
  12    5    6 am
  13    5   11 1
  14    6    7 2
  15    8    9 1
  16    9   10 2
  17    9   12 1
  18   12   13 1
  19   13   14 ar
  20   13   18 ar
  21   14   15 ar
  22   14   19 1
  23   15   16 ar
  24   15   24 1
  25   16   17 ar
  26   16   25 1
  27   17   18 ar
  28   17   26 1
  29   18   27 1

#	End of record

