#	Name: ASD02038578
#	Creating user name:	WinNT
#	Creation time:	15. 06. 2019 20:17

#	Modifying user name:	WinNT
#	Modification time:	15. 06. 2019 20:17

#	Program:	/corina/corina34_cracker 3.40 0067  02.08.2006

@<TRIPOS>MOLECULE
ASD02038578
  56   58    0    0    0
SMALL
NO_CHARGES


@<TRIPOS>ATOM
   1 N1            -0.8603     1.2918     0.3116 N.3     
   2 C2            -0.9812    -0.1445     0.5948 C.3     
   3 C3            -1.5651     1.6356    -0.8484 C.3     
   4 C4             0.0945    -0.5582     1.6011 C.3     
   5 C5            -0.0437    -2.0502     1.9109 C.3     
   6 O6             0.8839    -2.4117     2.9361 O.3     
   7 C7             0.8905    -3.7126     3.3318 C.ar    
   8 C8             1.7662    -4.1313     4.3228 C.ar    
   9 C9             1.7731    -5.4523     4.7255 C.ar    
  10 C10            0.9033    -6.3612     4.1383 C.ar    
  11 C11            0.0271    -5.9415     3.1465 C.ar    
  12 C12            0.0175    -4.6191     2.7484 C.ar    
  13 N13            0.9101    -7.7020     4.5461 N.am    
  14 O14            1.3873    -0.3044     1.0478 O.3     
  15 C15            1.1796    -8.0148     5.8291 C.2     
  16 N16            1.2910    -9.3060     6.1989 N.am    
  17 O17            1.3223    -7.1319     6.6530 O.2     
  18 C18           -1.2945     3.0906    -1.2814 C.3     
  19 N19           -2.0820     3.9780    -0.4551 N.3     
  20 C20           -1.3555     4.4993     0.7251 C.3     
  21 C21           -0.5029     3.4215     1.4134 C.3     
  22 C22           -1.2211     2.0982     1.4979 C.3     
  23 C23           -2.6206     5.0214    -1.2127 C.ar    
  24 C24           -3.3472     4.7427    -2.3632 C.ar    
  25 C25           -2.4353     6.3387    -0.8135 C.ar    
  26 C26           -2.9688     7.3680    -1.5642 C.ar    
  27 C27           -3.6873     7.0877    -2.7131 C.ar    
  28 C28           -3.8784     5.7759    -3.1101 C.ar    
  29 Cl29          -4.3565     8.3839    -3.6543 Cl      
  30 H30           -1.9670    -0.3510     1.0113 H       
  31 H31           -0.8513    -0.7091    -0.3285 H       
  32 H32           -1.2683     0.9651    -1.6549 H       
  33 H33           -2.6323     1.5138    -0.6634 H       
  34 H34           -0.0269     0.0163     2.5195 H       
  35 H35           -1.0587    -2.2585     2.2494 H       
  36 H36            0.1653    -2.6289     1.0112 H       
  37 H37            2.4430    -3.4242     4.7792 H       
  38 H38            2.4552    -5.7783     5.4967 H       
  39 H39           -0.6495    -6.6481     2.6891 H       
  40 H40           -0.6640    -4.2925     1.9770 H       
  41 H41            0.7208    -8.4050     3.9051 H       
  42 H42            1.5650    -0.7839     0.2271 H       
  43 H43            1.1771   -10.0103     5.5417 H       
  44 H44            1.4849    -9.5311     7.1223 H       
  45 H45           -0.2359     3.3181    -1.1558 H       
  46 H46           -1.5761     3.2190    -2.3265 H       
  47 H47           -0.7050     5.3141     0.4073 H       
  48 H48           -2.0793     4.8874     1.4417 H       
  49 H49            0.4208     3.2877     0.8503 H       
  50 H50           -0.2561     3.7554     2.4212 H       
  51 H51           -2.2980     2.2663     1.5127 H       
  52 H52           -0.9169     1.5736     2.4036 H       
  53 H53           -3.4963     3.7191    -2.6737 H       
  54 H54           -1.8749     6.5580     0.0833 H       
  55 H55           -2.8253     8.3925    -1.2540 H       
  56 H56           -4.4396     5.5600    -4.0072 H       
@<TRIPOS>BOND
   1    1    2 1
   2    1    3 1
   3    1   22 1
   4    2    4 1
   5    2   30 1
   6    2   31 1
   7    3   18 1
   8    3   32 1
   9    3   33 1
  10    4    5 1
  11    4   14 1
  12    4   34 1
  13    5    6 1
  14    5   35 1
  15    5   36 1
  16    6    7 1
  17    7    8 ar
  18    7   12 ar
  19    8    9 ar
  20    8   37 1
  21    9   10 ar
  22    9   38 1
  23   10   11 ar
  24   10   13 1
  25   11   12 ar
  26   11   39 1
  27   12   40 1
  28   13   15 am
  29   13   41 1
  30   14   42 1
  31   15   16 am
  32   15   17 2
  33   16   43 1
  34   16   44 1
  35   18   19 1
  36   18   45 1
  37   18   46 1
  38   19   20 1
  39   19   23 1
  40   20   21 1
  41   20   47 1
  42   20   48 1
  43   21   22 1
  44   21   49 1
  45   21   50 1
  46   22   51 1
  47   22   52 1
  48   23   24 ar
  49   23   25 ar
  50   24   28 ar
  51   24   53 1
  52   25   26 ar
  53   25   54 1
  54   26   27 ar
  55   26   55 1
  56   27   28 ar
  57   27   29 1
  58   28   56 1

#	End of record

