#	Name: ASD04910212
#	Creating user name:	WinNT
#	Creation time:	15. 06. 2019 20:55

#	Modifying user name:	WinNT
#	Modification time:	15. 06. 2019 20:55

#	Program:	/corina/corina34_cracker 3.40 0067  02.08.2006

@<TRIPOS>MOLECULE
ASD04910212
  40   42    0    0    0
SMALL
NO_CHARGES


@<TRIPOS>ATOM
   1 C1            -0.0159     1.3206     0.0093 C.ar    
   2 N2             0.0021    -0.0041     0.0020 N.ar    
   3 C3             1.1439    -0.6664    -0.0125 C.ar    
   4 C4             2.3446     0.0514    -0.0201 C.ar    
   5 C5             2.2812     1.4488    -0.0120 C.ar    
   6 N6             1.0991     2.0361     0.0025 N.ar    
   7 N7            -1.2413     1.9795     0.0186 N.pl3   
   8 N8            -2.5045     1.3737     0.0218 N.2     
   9 C9            -3.4109     2.3161     0.0318 C.2     
  10 C10           -2.7593     3.5558     0.0354 C.2     
  11 C11           -1.4269     3.3268     0.0323 C.2     
  12 C12           -3.4260     4.9072     0.0464 C.3     
  13 F13           -4.8152     4.7418     0.0532 F       
  14 F14           -3.0346     5.6110     1.1904 F       
  15 F15           -3.0472     5.6234    -1.0941 F       
  16 O16            5.0361    -0.1045    -0.0462 O.3     
  17 B17            3.7273    -0.6921    -0.0369 Du      
  18 O18            3.9588    -2.1080    -0.0457 O.3     
  19 C19            5.0878    -2.2990     0.8327 C.3     
  20 C20            5.8182    -0.9406     0.8324 C.3     
  21 C21            7.2401    -1.1000     0.2906 C.3     
  22 C22            5.8472    -0.3506     2.2437 C.3     
  23 C23            4.6118    -2.6480     2.2443 C.3     
  24 C24            6.0048    -3.3975     0.2912 C.3     
  25 H25            1.1510    -1.7463    -0.0180 H       
  26 H26            3.1861     2.0384    -0.0172 H       
  27 H27           -4.4802     2.1643     0.0364 H       
  28 H28           -0.6505     4.0775     0.0379 H       
  29 H29            7.7222    -0.1236     0.2425 H       
  30 H30            7.8093    -1.7542     0.9510 H       
  31 H31            7.2018    -1.5359    -0.7077 H       
  32 H32            4.8284    -0.2588     2.6202 H       
  33 H33            6.4194    -1.0063     2.9000 H       
  34 H34            6.3144     0.6338     2.2165 H       
  35 H35            4.0483    -3.5806     2.2176 H       
  36 H36            5.4745    -2.7635     2.9005 H       
  37 H37            3.9736    -1.8485     2.6206 H       
  38 H38            6.3470    -3.1256    -0.7073 H       
  39 H39            6.8645    -3.5114     0.9515 H       
  40 H40            5.4561    -4.3381     0.2436 H       
@<TRIPOS>BOND
   1    1    2 ar
   2    1    6 ar
   3    1    7 1
   4    2    3 ar
   5    3    4 ar
   6    3   25 1
   7    4    5 ar
   8    4   17 1
   9    5    6 ar
  10    5   26 1
  11    7    8 1
  12    7   11 1
  13    8    9 2
  14    9   10 1
  15    9   27 1
  16   10   11 2
  17   10   12 1
  18   11   28 1
  19   12   13 1
  20   12   14 1
  21   12   15 1
  22   16   17 1
  23   16   20 1
  24   17   18 1
  25   18   19 1
  26   19   20 1
  27   19   23 1
  28   19   24 1
  29   20   21 1
  30   20   22 1
  31   21   29 1
  32   21   30 1
  33   21   31 1
  34   22   32 1
  35   22   33 1
  36   22   34 1
  37   23   35 1
  38   23   36 1
  39   23   37 1
  40   24   38 1
  41   24   39 1
  42   24   40 1

#	End of record

