#	Name: ASD05430193
#	Creating user name:	WinNT
#	Creation time:	15. 06. 2019 20:59

#	Modifying user name:	WinNT
#	Modification time:	15. 06. 2019 20:59

#	Program:	/corina/corina34_cracker 3.40 0067  02.08.2006

@<TRIPOS>MOLECULE
ASD05430193
  62   68    0    0    0
SMALL
NO_CHARGES


@<TRIPOS>ATOM
   1 C1            -0.0168     1.3907     0.0097 C.ar    
   2 C2             0.0021    -0.0041     0.0020 C.ar    
   3 C3             1.2137    -0.6728    -0.0132 C.ar    
   4 C4             2.4074     0.0328    -0.0203 C.ar    
   5 C5             2.4074     1.3994    -0.0130 C.ar    
   6 C6             1.1963     2.0964     0.0019 C.ar    
   7 C7             5.3634     3.3847     1.4052 C.3     
   8 C8             4.1031     2.5102     1.4152 C.3     
   9 C9             3.7120     2.1538    -0.0204 C.3     
  10 C10            5.9066     3.5137     2.8256 C.3     
  11 C11            6.4105     2.1896     3.4008 C.3     
  12 N12            5.3962     1.1653     3.1517 N.pl3   
  13 C13            4.4052     1.2454     2.1902 C.2     
  14 N14            3.8176     0.1099     2.0552 N.2     
  15 C15            4.4770     0.0967     5.1518 C.ar    
  16 C16            3.7464    -0.9368     5.7078 C.ar    
  17 N17           -1.2013    -0.7255     0.0101 N.pl3   
  18 C18           -2.2464    -0.5427     0.8578 C.2     
  19 C19           -1.5464    -1.7439    -0.8399 C.2     
  20 C20           -2.7798    -2.1495    -0.4823 C.2     
  21 N21           -3.1825    -1.4005     0.5548 N.2     
  22 C22           -3.5722    -3.2517    -1.1369 C.3     
  23 C23            3.0850    -0.7493     6.9067 C.ar    
  24 C24            3.1543     0.4743     7.5509 C.ar    
  25 C25            3.8863     1.5087     6.9931 C.ar    
  26 C26            4.5469     1.3189     5.7942 C.ar    
  27 F27            2.5077     0.6589     8.7227 F       
  28 N28           -0.4476     3.6024     0.0235 N.2     
  29 O29           -1.0081     2.3047     0.0187 O.3     
  30 C30            6.8944     4.6752     3.0046 C.3     
  31 O31            6.1834     4.9360     4.2327 O.3     
  32 C32            4.9800     4.2844     3.7755 C.3     
  33 C33            5.2029    -0.1110     3.8476 C.3     
  34 O34            4.3872    -0.8590     2.9221 O.3     
  35 C35            6.5436    -0.8116     4.0773 C.3     
  36 C36            0.8473     3.5199     0.0123 C.2     
  37 H37            1.2295    -1.7526    -0.0191 H       
  38 H38            3.3454    -0.5024    -0.0314 H       
  39 H39            6.1190     2.9255     0.7678 H       
  40 H40            5.1160     4.3738     1.0198 H       
  41 H41            3.2862     3.0491     1.8951 H       
  42 H42            4.4889     1.5318    -0.4649 H       
  43 H43            3.5999     3.0676    -0.6040 H       
  44 H44            7.3439     1.9086     2.9130 H       
  45 H45            6.5726     2.2929     4.4737 H       
  46 H46            3.6922    -1.8911     5.2049 H       
  47 H47           -2.2947     0.1894     1.6504 H       
  48 H48           -0.9447    -2.1443    -1.6425 H       
  49 H49           -3.3508    -4.1993    -0.6458 H       
  50 H50           -4.6369    -3.0361    -1.0474 H       
  51 H51           -3.3019    -3.3168    -2.1908 H       
  52 H52            2.5139    -1.5568     7.3406 H       
  53 H53            3.9411     2.4636     7.4948 H       
  54 H54            5.1180     2.1256     5.3589 H       
  55 H55            7.9269     4.3581     3.1511 H       
  56 H56            6.7898     5.4626     2.2582 H       
  57 H57            4.2827     4.9509     3.2678 H       
  58 H58            4.5026     3.6593     4.5302 H       
  59 H59            7.1874    -0.1743     4.6835 H       
  60 H60            6.3759    -1.7561     4.5949 H       
  61 H61            7.0224    -1.0035     3.1171 H       
  62 H62            1.5405     4.3481     0.0106 H       
@<TRIPOS>BOND
   1    1    2 ar
   2    1    6 ar
   3    1   29 1
   4    2    3 ar
   5    2   17 1
   6    3    4 ar
   7    3   37 1
   8    4    5 ar
   9    4   38 1
  10    5    6 ar
  11    5    9 1
  12    6   36 1
  13    7    8 1
  14    7   10 1
  15    7   39 1
  16    7   40 1
  17    8    9 1
  18    8   13 1
  19    8   41 1
  20    9   42 1
  21    9   43 1
  22   10   11 1
  23   10   30 1
  24   10   32 1
  25   11   12 1
  26   11   44 1
  27   11   45 1
  28   12   13 1
  29   12   33 1
  30   13   14 2
  31   14   34 1
  32   15   16 ar
  33   15   26 ar
  34   15   33 1
  35   16   23 ar
  36   16   46 1
  37   17   18 1
  38   17   19 1
  39   18   21 2
  40   18   47 1
  41   19   20 2
  42   19   48 1
  43   20   21 1
  44   20   22 1
  45   22   49 1
  46   22   50 1
  47   22   51 1
  48   23   24 ar
  49   23   52 1
  50   24   25 ar
  51   24   27 1
  52   25   26 ar
  53   25   53 1
  54   26   54 1
  55   28   29 1
  56   28   36 2
  57   30   31 1
  58   30   55 1
  59   30   56 1
  60   31   32 1
  61   32   57 1
  62   32   58 1
  63   33   34 1
  64   33   35 1
  65   35   59 1
  66   35   60 1
  67   35   61 1
  68   36   62 1

#	End of record

