#	Name: ASD03240998
#	Creating user name:	WinNT
#	Creation time:	15. 06. 2019 20:35

#	Modifying user name:	WinNT
#	Modification time:	15. 06. 2019 20:35

#	Program:	/corina/corina34_cracker 3.40 0067  02.08.2006

@<TRIPOS>MOLECULE
ASD03240998
  60   65    0    0    0
SMALL
NO_CHARGES


@<TRIPOS>ATOM
   1 C1             2.0420     2.6278    -1.2752 C.3     
   2 C2             1.9535     1.7766     0.0025 C.3     
   3 C3             2.0289     0.5409    -0.9098 C.3     
   4 C4             2.7592     1.4337    -1.9268 C.3     
   5 O5             0.7702     2.9192    -1.8580 O.3     
   6 C6             2.9267     3.8671    -1.1259 C.3     
   7 C7             2.8857    -0.5678    -0.3549 C.ar    
   8 C8             2.5953    -1.8842    -0.6658 C.ar    
   9 C9             3.3758    -2.9037    -0.1605 C.ar    
  10 C10            4.4597    -2.6048     0.6648 C.ar    
  11 C11            4.7477    -1.2756     0.9742 C.ar    
  12 C12            3.9629    -0.2646     0.4585 C.ar    
  13 N13            6.8193    -6.7072     0.0085 N.pl3   
  14 C14            7.5974    -7.7238     0.4952 C.2     
  15 N15            7.9949    -7.7481     1.7796 N.2     
  16 C16            7.6606    -6.8073     2.6249 C.2     
  17 C17            6.8581    -5.7257     2.1923 C.ar    
  18 C18            6.4771    -4.6940     3.0726 C.ar    
  19 C19            5.6818    -3.6596     2.5625 C.ar    
  20 C20            5.3012    -3.6944     1.2109 C.ar    
  21 N21            5.6807    -4.6845     0.4146 N.ar    
  22 C22            6.4309    -5.6827     0.8499 C.ar    
  23 C23            7.8251    -8.5941    -0.5603 C.2     
  24 C24            7.1745    -8.0832    -1.6770 C.2     
  25 N25            6.5722    -6.9663    -1.3438 N.2     
  26 C26            5.2470    -2.5454     3.4368 C.ar    
  27 C27            6.1829    -1.6377     3.9315 C.ar    
  28 C28            5.7719    -0.6016     4.7450 C.ar    
  29 C29            4.4344    -0.4625     5.0700 C.ar    
  30 C30            3.5014    -1.3601     4.5827 C.ar    
  31 C31            3.8995    -2.3968     3.7636 C.ar    
  32 C32            7.1594    -8.7121    -3.0464 C.3     
  33 N33            6.8759    -4.7018     4.3982 N.pl3   
  34 N34            0.7167     0.0715    -1.3743 N.3     
  35 H35            2.8153     1.8864     0.6609 H       
  36 H36            1.0033     1.8745     0.5275 H       
  37 H37            2.4594     1.2548    -2.9594 H       
  38 H38            3.8412     1.4498    -1.7959 H       
  39 H39            0.8193     3.4543    -2.6620 H       
  40 H40            3.9406     3.5608    -0.8683 H       
  41 H41            2.9415     4.4183    -2.0662 H       
  42 H42            2.5284     4.5050    -0.3370 H       
  43 H43            1.7557    -2.1144    -1.3049 H       
  44 H44            3.1476    -3.9310    -0.4032 H       
  45 H45            5.5855    -1.0379     1.6129 H       
  46 H46            4.1875     0.7653     0.6938 H       
  47 H47            7.9960    -6.8564     3.6503 H       
  48 H48            8.4044    -9.5047    -0.5217 H       
  49 H49            7.2273    -1.7455     3.6788 H       
  50 H50            6.4958     0.1018     5.1291 H       
  51 H51            4.1174     0.3500     5.7071 H       
  52 H52            2.4587    -1.2466     4.8401 H       
  53 H53            3.1697    -3.0944     3.3801 H       
  54 H54            6.3102    -9.3909    -3.1251 H       
  55 H55            7.0728    -7.9325    -3.8033 H       
  56 H56            8.0843    -9.2677    -3.2013 H       
  57 H57            7.4269    -5.4258     4.7347 H       
  58 H58            6.6044    -3.9833     4.9906 H       
  59 H59            0.8119    -0.7385    -1.9683 H       
  60 H60            0.1050    -0.1212    -0.5953 H       
@<TRIPOS>BOND
   1    1    2 1
   2    1    4 1
   3    1    5 1
   4    1    6 1
   5    2    3 1
   6    2   35 1
   7    2   36 1
   8    3    4 1
   9    3    7 1
  10    3   34 1
  11    4   37 1
  12    4   38 1
  13    5   39 1
  14    6   40 1
  15    6   41 1
  16    6   42 1
  17    7    8 ar
  18    7   12 ar
  19    8    9 ar
  20    8   43 1
  21    9   10 ar
  22    9   44 1
  23   10   11 ar
  24   10   20 1
  25   11   12 ar
  26   11   45 1
  27   12   46 1
  28   13   14 1
  29   13   22 1
  30   13   25 1
  31   14   15 1
  32   14   23 2
  33   15   16 2
  34   16   17 1
  35   16   47 1
  36   17   18 ar
  37   17   22 ar
  38   18   19 ar
  39   18   33 1
  40   19   20 ar
  41   19   26 1
  42   20   21 ar
  43   21   22 ar
  44   23   24 1
  45   23   48 1
  46   24   25 2
  47   24   32 1
  48   26   27 ar
  49   26   31 ar
  50   27   28 ar
  51   27   49 1
  52   28   29 ar
  53   28   50 1
  54   29   30 ar
  55   29   51 1
  56   30   31 ar
  57   30   52 1
  58   31   53 1
  59   32   54 1
  60   32   55 1
  61   32   56 1
  62   33   57 1
  63   33   58 1
  64   34   59 1
  65   34   60 1

#	End of record

