#	Name: ASD05130019
#	Creating user name:	WinNT
#	Creation time:	15. 06. 2019 20:56

#	Modifying user name:	WinNT
#	Modification time:	15. 06. 2019 20:56

#	Program:	/corina/corina34_cracker 3.40 0067  02.08.2006

@<TRIPOS>MOLECULE
ASD05130019
  65   69    0    0    0
SMALL
NO_CHARGES


@<TRIPOS>ATOM
   1 N1             1.5694     2.9989    -0.0324 N.am    
   2 C2             3.0392     2.9495    -0.0443 C.3     
   3 C3             2.9338     1.5867    -0.7427 C.3     
   4 C4             1.5743     1.5282    -0.0324 C.3     
   5 C5             0.6310     3.9662    -0.0206 C.2     
   6 O6             0.9634     5.1356    -0.0180 O.2     
   7 N7            -0.6759     3.6371    -0.0116 N.am    
   8 N8            -5.2835     5.0035     0.0398 N.am    
   9 C9            -6.2027     5.9813     0.1609 C.2     
  10 C10           -5.7818     7.3655     0.3907 C.2     
  11 C11           -4.4488     7.6592     0.4821 C.2     
  12 C12           -3.5030     6.6143     0.3519 C.ar    
  13 C13           -2.1287     6.8691     0.4397 C.ar    
  14 N14           -1.2634     5.8864     0.3172 N.ar    
  15 C15           -1.6428     4.6307     0.1088 C.ar    
  16 C16           -2.9832     4.2902     0.0086 C.ar    
  17 C17           -3.9413     5.2908     0.1305 C.ar    
  18 O18           -7.3881     5.7134     0.0785 O.2     
  19 C19           -6.7931     8.4404     0.5228 C.ar    
  20 C20           -7.0820     8.9781     1.7770 C.ar    
  21 C21           -8.0246     9.9789     1.8988 C.ar    
  22 C22           -8.6854    10.4525     0.7786 C.ar    
  23 C23           -8.4027     9.9218    -0.4762 C.ar    
  24 C24           -7.4537     8.9205    -0.6066 C.ar    
  25 N25           -9.0735    10.4030    -1.6078 N.am    
  26 C26           -8.4300    10.4835    -2.7892 C.2     
  27 O27           -7.2941    10.0622    -2.8928 O.2     
  28 N28           -9.0455    11.0311    -3.8559 N.am    
  29 C29           -8.4147    11.0289    -5.1050 C.ar    
  30 C30           -9.1659    10.8805    -6.2636 C.ar    
  31 C31           -8.5403    10.8787    -7.4949 C.ar    
  32 C32           -7.1675    11.0246    -7.5749 C.ar    
  33 C33           -6.4167    11.1722    -6.4231 C.ar    
  34 C34           -7.0369    11.1809    -5.1890 C.ar    
  35 C35           -6.3651     8.4657     2.9995 C.3     
  36 F36           -9.6074    11.4320     0.9039 F       
  37 C37           -5.7173     3.6222    -0.1843 C.3     
  38 C38           -5.8247     3.3589    -1.6877 C.3     
  39 H39            3.4944     3.7213    -0.6649 H       
  40 H40            3.4798     2.8942     0.9512 H       
  41 H41            2.8682     1.6452    -1.8292 H       
  42 H42            3.6538     0.8476    -0.3915 H       
  43 H43            1.6247     1.0943     0.9663 H       
  44 H44            0.7840     1.0915    -0.6429 H       
  45 H45           -0.9426     2.7077    -0.0892 H       
  46 H46           -4.1225     8.6748     0.6509 H       
  47 H47           -1.7782     7.8765     0.6084 H       
  48 H48           -3.2782     3.2653    -0.1616 H       
  49 H49           -8.2474    10.3934     2.8709 H       
  50 H50           -7.2299     8.5101    -1.5802 H       
  51 H51          -10.0013    10.6782    -1.5411 H       
  52 H52           -9.9257    11.4267    -3.7577 H       
  53 H53          -10.2380    10.7662    -6.2018 H       
  54 H54           -9.1239    10.7629    -8.3963 H       
  55 H55           -6.6807    11.0229    -8.5389 H       
  56 H56           -5.3446    11.2852    -6.4888 H       
  57 H57           -6.4506    11.3014    -4.2901 H       
  58 H58           -5.4585     9.0491     3.1603 H       
  59 H59           -7.0163     8.5594     3.8686 H       
  60 H60           -6.1020     7.4180     2.8540 H       
  61 H61           -4.9908     2.9377     0.2535 H       
  62 H62           -6.6901     3.4667     0.2822 H       
  63 H63           -6.1475     2.3313    -1.8544 H       
  64 H64           -6.5512     4.0435    -2.1254 H       
  65 H65           -4.8520     3.5145    -2.1542 H       
@<TRIPOS>BOND
   1    1    2 1
   2    1    4 1
   3    1    5 am
   4    2    3 1
   5    2   39 1
   6    2   40 1
   7    3    4 1
   8    3   41 1
   9    3   42 1
  10    4   43 1
  11    4   44 1
  12    5    6 2
  13    5    7 am
  14    7   15 1
  15    7   45 1
  16    8    9 am
  17    8   17 1
  18    8   37 1
  19    9   10 1
  20    9   18 2
  21   10   11 2
  22   10   19 1
  23   11   12 1
  24   11   46 1
  25   12   13 ar
  26   12   17 ar
  27   13   14 ar
  28   13   47 1
  29   14   15 ar
  30   15   16 ar
  31   16   17 ar
  32   16   48 1
  33   19   20 ar
  34   19   24 ar
  35   20   21 ar
  36   20   35 1
  37   21   22 ar
  38   21   49 1
  39   22   23 ar
  40   22   36 1
  41   23   24 ar
  42   23   25 1
  43   24   50 1
  44   25   26 am
  45   25   51 1
  46   26   27 2
  47   26   28 am
  48   28   29 1
  49   28   52 1
  50   29   30 ar
  51   29   34 ar
  52   30   31 ar
  53   30   53 1
  54   31   32 ar
  55   31   54 1
  56   32   33 ar
  57   32   55 1
  58   33   34 ar
  59   33   56 1
  60   34   57 1
  61   35   58 1
  62   35   59 1
  63   35   60 1
  64   37   38 1
  65   37   61 1
  66   37   62 1
  67   38   63 1
  68   38   64 1
  69   38   65 1

#	End of record

