#	Name: ASD01410735
#	Creating user name:	WinNT
#	Creation time:	15. 06. 2019 19:18

#	Modifying user name:	WinNT
#	Modification time:	15. 06. 2019 19:18

#	Program:	/corina/corina34_cracker 3.40 0067  02.08.2006

@<TRIPOS>MOLECULE
ASD01410735
  47   49    0    0    0
SMALL
NO_CHARGES


@<TRIPOS>ATOM
   1 N1            -0.0077     1.4724    -1.1256 N.ar    
   2 C2            -0.0695     0.1883    -1.4311 C.ar    
   3 C3             1.0808    -0.5389    -1.7774 C.ar    
   4 C4             2.2951     0.0830    -1.8026 C.ar    
   5 C5             2.3518     1.4539    -1.4751 C.ar    
   6 C6             3.5696     2.1511    -1.4828 C.ar    
   7 C7             3.5960     3.4738    -1.1632 C.ar    
   8 C8             2.4219     4.1526    -0.8249 C.ar    
   9 C9             1.2102     3.4983    -0.8076 C.ar    
  10 C10            1.1541     2.1321    -1.1339 C.ar    
  11 S11           -1.6481    -2.1975    -1.7834 S.3     
  12 C12           -1.3781    -0.4977    -1.4072 C.2     
  13 N13           -2.5171     0.0573    -1.1048 N.2     
  14 C14           -3.5811    -0.7079    -1.1361 C.2     
  15 C15           -3.3713    -1.9855    -1.4792 C.2     
  16 C16           -4.9546    -0.1829    -0.8061 C.3     
  17 C17           -5.6709     0.2185    -2.0972 C.3     
  18 C18           -5.7593    -1.2720    -0.0938 C.3     
  19 O19            2.4768     5.4730    -0.5092 O.3     
  20 C20            3.7625     6.0956    -0.5447 C.3     
  21 C21            3.6254     7.5708    -0.1628 C.3     
  22 O22            2.7544     8.2236    -1.0887 O.3     
  23 C23            2.8164     9.6503    -1.0383 C.3     
  24 O24            3.0828     7.6733     1.1551 O.3     
  25 C25            3.3465     8.9227     1.7967 C.3     
  26 Cl26          -0.2391     4.3554    -0.3847 Cl      
  27 Cl27           3.7339    -0.7909    -2.2264 Cl      
  28 H28            1.0046    -1.5879    -2.0228 H       
  29 H29            4.4844     1.6388    -1.7416 H       
  30 H30            4.5360     4.0055    -1.1708 H       
  31 H31           -4.1273    -2.7529    -1.5565 H       
  32 H32           -4.8644     0.6867    -0.1552 H       
  33 H33           -6.6643     0.5982    -1.8585 H       
  34 H34           -5.0976     0.9943    -2.6046 H       
  35 H35           -5.7610    -0.6512    -2.7481 H       
  36 H36           -5.2490    -1.5579     0.8259 H       
  37 H37           -6.7527    -0.8922     0.1448 H       
  38 H38           -5.8494    -2.1416    -0.7448 H       
  39 H39            4.4269     5.5977     0.1616 H       
  40 H40            4.1764     6.0174    -1.5500 H       
  41 H41            4.6062     8.0458    -0.1899 H       
  42 H42            2.4383    10.0637    -1.9734 H       
  43 H43            2.2081    10.0114    -0.2091 H       
  44 H44            3.8503     9.9642    -0.8941 H       
  45 H45            3.0426     8.8656     2.8420 H       
  46 H46            4.4125     9.1425     1.7398 H       
  47 H47            2.7854     9.7129     1.2978 H       
@<TRIPOS>BOND
   1    1    2 ar
   2    1   10 ar
   3    2    3 ar
   4    2   12 1
   5    3    4 ar
   6    3   28 1
   7    4    5 ar
   8    4   27 1
   9    5    6 ar
  10    5   10 ar
  11    6    7 ar
  12    6   29 1
  13    7    8 ar
  14    7   30 1
  15    8    9 ar
  16    8   19 1
  17    9   10 ar
  18    9   26 1
  19   11   12 1
  20   11   15 1
  21   12   13 2
  22   13   14 1
  23   14   15 2
  24   14   16 1
  25   15   31 1
  26   16   17 1
  27   16   18 1
  28   16   32 1
  29   17   33 1
  30   17   34 1
  31   17   35 1
  32   18   36 1
  33   18   37 1
  34   18   38 1
  35   19   20 1
  36   20   21 1
  37   20   39 1
  38   20   40 1
  39   21   22 1
  40   21   24 1
  41   21   41 1
  42   22   23 1
  43   23   42 1
  44   23   43 1
  45   23   44 1
  46   24   25 1
  47   25   45 1
  48   25   46 1
  49   25   47 1

#	End of record

