#	Name: ASD03731769
#	Creating user name:	WinNT
#	Creation time:	15. 06. 2019 20:46

#	Modifying user name:	WinNT
#	Modification time:	15. 06. 2019 20:46

#	Program:	/corina/corina34_cracker 3.40 0067  02.08.2006

@<TRIPOS>MOLECULE
ASD03731769
  33   34    0    0    0
SMALL
NO_CHARGES


@<TRIPOS>ATOM
   1 C1             0.3753     1.0930     1.9793 C.2     
   2 C2             0.2918    -0.2832     1.4522 C.ar    
   3 C3             1.3748    -0.8363     0.7630 C.ar    
   4 C4             1.2926    -2.1219     0.2724 C.ar    
   5 C5             0.1324    -2.8678     0.4628 C.ar    
   6 C6            -0.9450    -2.3199     1.1475 C.ar    
   7 C7            -0.8675    -1.0380     1.6460 C.ar    
   8 O8             1.3869     1.7469     1.8142 O.2     
   9 N9            -0.6719     1.6267     2.6388 N.am    
  10 S10           -0.5783     3.1706     3.2302 S.o2    
  11 O11           -1.8294     3.3767     3.8716 O.2     
  12 O12            0.6356     3.1900     3.9687 O.2     
  13 C13           -0.4411     4.2138     1.7524 C.3     
  14 F14            2.3382    -2.6583    -0.3940 F       
  15 O15            0.0538    -4.1332    -0.0222 O.3     
  16 C16           -1.1326    -4.7866     0.0893 C.ar    
  17 C17           -2.0866    -4.6702    -0.9115 C.ar    
  18 C18           -3.2916    -5.3355    -0.7965 C.ar    
  19 C19           -3.5479    -6.1174     0.3161 C.ar    
  20 C20           -2.5981    -6.2345     1.3155 C.ar    
  21 C21           -1.3893    -5.5757     1.2014 C.ar    
  22 Cl22          -5.0634    -6.9521     0.4585 Cl      
  23 H23            2.2744    -0.2573     0.6148 H       
  24 H24           -1.8434    -2.9015     1.2929 H       
  25 H25           -1.7044    -0.6151     2.1819 H       
  26 H26           -1.4805     1.1064     2.7671 H       
  27 H27           -1.3204     4.0713     1.1242 H       
  28 H28           -0.3736     5.2599     2.0511 H       
  29 H29            0.4531     3.9370     1.1941 H       
  30 H30           -1.8872    -4.0594    -1.7796 H       
  31 H31           -4.0344    -5.2451    -1.5752 H       
  32 H32           -2.8003    -6.8447     2.1833 H       
  33 H33           -0.6464    -5.6709     1.9795 H       
@<TRIPOS>BOND
   1    1    2 1
   2    1    8 2
   3    1    9 am
   4    2    3 ar
   5    2    7 ar
   6    3    4 ar
   7    3   23 1
   8    4    5 ar
   9    4   14 1
  10    5    6 ar
  11    5   15 1
  12    6    7 ar
  13    6   24 1
  14    7   25 1
  15    9   10 am
  16    9   26 1
  17   10   11 2
  18   10   12 2
  19   10   13 1
  20   13   27 1
  21   13   28 1
  22   13   29 1
  23   15   16 1
  24   16   17 ar
  25   16   21 ar
  26   17   18 ar
  27   17   30 1
  28   18   19 ar
  29   18   31 1
  30   19   20 ar
  31   19   22 1
  32   20   21 ar
  33   20   32 1
  34   21   33 1

#	End of record

