#	Name: ASD01940174
#	Creating user name:	WinNT
#	Creation time:	15. 06. 2019 20:11

#	Modifying user name:	WinNT
#	Modification time:	15. 06. 2019 20:11

#	Program:	/corina/corina34_cracker 3.40 0067  02.08.2006

@<TRIPOS>MOLECULE
ASD01940174
  63   64    0    0    0
SMALL
NO_CHARGES


@<TRIPOS>ATOM
   1 C1            -1.1579     0.7018     1.3115 C.ar    
   2 C2            -1.0654    -0.5620     0.7460 C.ar    
   3 C3            -2.0163    -0.9857    -0.1673 C.ar    
   4 C4            -3.0632    -0.1505    -0.5202 C.ar    
   5 C5            -3.1626     1.1168     0.0419 C.ar    
   6 C6            -2.2119     1.5428     0.9647 C.ar    
   7 N7            -2.3087     2.8229     1.5358 N.am    
   8 S8            -3.5842     3.1941     2.5246 S.o2    
   9 O9            -3.3102     4.5159     2.9686 O.2     
  10 O10           -4.7324     2.9089     1.7375 O.2     
  11 F11           -1.9222    -2.2168    -0.7158 F       
  12 F12           -3.9884    -0.5678    -1.4119 F       
  13 N13           -4.2218     1.9625    -0.3160 N.pl3   
  14 C14           -5.5413     1.5119    -0.2138 C.ar    
  15 C15           -6.5976     2.3962    -0.4103 C.ar    
  16 C16           -5.8011     0.1798     0.0785 C.ar    
  17 C17           -7.1064    -0.2625     0.1789 C.ar    
  18 C18           -8.1540     0.6190    -0.0116 C.ar    
  19 C19           -7.9006     1.9463    -0.3082 C.ar    
  20 F20           -6.3500     3.6923    -0.7000 F       
  21 C21           -9.5758     0.1317     0.0985 C.3     
  22 C22           -3.4474     2.0194     3.9000 C.3     
  23 C23           -2.0820     2.1609     4.5758 C.3     
  24 C24           -4.5699     2.2712     4.9219 C.3     
  25 C25           -3.6349     0.5776     3.3843 C.3     
  26 N26           -0.1943     1.1292     2.2353 N.pl3   
  27 C27            0.8206     0.1914     2.7219 C.3     
  28 C28           -1.9895     3.5275     5.2575 C.3     
  29 C29           -0.7149     3.6267     5.9870 C.1     
  30 C30            0.3017     3.7058     6.5689 C.1     
  31 C31            1.5763     3.8049     7.2985 C.3     
  32 C32           -4.4239    -0.1302     4.5136 C.3     
  33 C33           -5.4016     0.9738     4.9916 C.3     
  34 H34           -0.2503    -1.2161     1.0183 H       
  35 H35           -1.6285     3.4892     1.3508 H       
  36 H36           -4.0392     2.8603    -0.6346 H       
  37 H37           -4.9837    -0.5103     0.2269 H       
  38 H38           -7.3084    -1.2988     0.4063 H       
  39 H39           -8.7215     2.6323    -0.4564 H       
  40 H40           -9.9162     0.2340     1.1290 H       
  41 H41          -10.2148     0.7247    -0.5558 H       
  42 H42           -9.6248    -0.9161    -0.1980 H       
  43 H43           -1.9622     1.3744     5.3209 H       
  44 H44           -1.2951     2.0745     3.8266 H       
  45 H45           -4.1420     2.4934     5.8995 H       
  46 H46           -5.1969     3.0993     4.5914 H       
  47 H47           -4.2096     0.5755     2.4581 H       
  48 H48           -2.6679     0.0970     3.2354 H       
  49 H49           -0.1994     2.0458     2.5524 H       
  50 H50            1.5216     0.7183     3.3692 H       
  51 H51            0.3373    -0.6077     3.2840 H       
  52 H52            1.3581    -0.2342     1.8745 H       
  53 H53           -2.0389     4.3135     4.5039 H       
  54 H54           -2.8181     3.6417     5.9564 H       
  55 H55            1.6422     4.7785     7.7841 H       
  56 H56            1.6257     3.0189     8.0521 H       
  57 H57            2.4048     3.6907     6.5996 H       
  58 H58           -4.9706    -0.9887     4.1233 H       
  59 H59           -3.7566    -0.4306     5.3214 H       
  60 H60           -5.7236     0.7816     6.0151 H       
  61 H61           -6.2621     1.0360     4.3254 H       
  62 H62            7.4048     9.7785    13.0521 H       
  63 H63            7.4048    10.5385    13.0521 H       
@<TRIPOS>BOND
   1    1    2 ar
   2    1   26 1
   3    1    6 ar
   4    2    3 ar
   5    2   34 1
   6    3    4 ar
   7    3   11 1
   8    4    5 ar
   9    4   12 1
  10    5    6 ar
  11    5   13 1
  12    6    7 1
  13    7    8 am
  14    7   35 1
  15    8    9 2
  16    8   10 2
  17    8   22 1
  18   13   14 1
  19   13   36 1
  20   14   15 ar
  21   14   16 ar
  22   15   20 1
  23   15   19 ar
  24   16   17 ar
  25   16   37 1
  26   17   18 ar
  27   17   38 1
  28   18   19 ar
  29   18   21 1
  30   19   39 1
  31   21   40 1
  32   21   41 1
  33   21   42 1
  34   22   23 1
  35   22   24 1
  36   22   25 1
  37   23   28 1
  38   23   43 1
  39   23   44 1
  40   24   33 1
  41   24   45 1
  42   24   46 1
  43   25   32 1
  44   25   47 1
  45   25   48 1
  46   26   27 1
  47   26   49 1
  48   27   50 1
  49   27   51 1
  50   27   52 1
  51   28   29 1
  52   28   53 1
  53   28   54 1
  54   29   30 3
  55   30   31 1
  56   31   55 1
  57   31   56 1
  58   31   57 1
  59   32   33 1
  60   32   58 1
  61   32   59 1
  62   33   60 1
  63   33   61 1
  64   62   63 1

#	End of record

