#	Name: ASD01208498
#	Creating user name:	WinNT
#	Creation time:	15. 06. 2019 19:09

#	Modifying user name:	WinNT
#	Modification time:	15. 06. 2019 19:09

#	Program:	/corina/corina34_cracker 3.40 0067  02.08.2006

@<TRIPOS>MOLECULE
ASD01208498
  24   25    0    0    0
SMALL
NO_CHARGES


@<TRIPOS>ATOM
   1 N1            -0.0179     1.4664     0.0101 N.am    
   2 C2             0.0021    -0.0041     0.0020 C.3     
   3 C3             1.3732     0.0647     0.6886 C.3     
   4 C4             1.4523     1.4322    -0.0041 C.3     
   5 S5            -1.1831     2.6431     0.0224 S.o2    
   6 O6            -0.5802     3.8105    -0.5188 O.2     
   7 O7            -2.3562     2.0518    -0.5194 O.2     
   8 C8            -1.5416     3.0045     1.7092 C.ar    
   9 C9            -0.8312     3.9889     2.3707 C.ar    
  10 C10           -1.1119     4.2735     3.6936 C.ar    
  11 C11           -2.1049     3.5724     4.3565 C.ar    
  12 C12           -2.8158     2.5868     3.6929 C.ar    
  13 C13           -2.5369     2.3075     2.3685 C.ar    
  14 F14           -2.3798     3.8496     5.6499 F       
  15 H15           -0.7729    -0.4521     0.6240 H       
  16 H16            0.0392    -0.4322    -0.9997 H       
  17 H17            1.3262     0.1168     1.7764 H       
  18 H18            2.0944    -0.6651     0.3207 H       
  19 H19            1.8758     1.3866    -1.0075 H       
  20 H20            1.9105     2.2053     0.6126 H       
  21 H21           -0.0564     4.5353     1.8536 H       
  22 H22           -0.5565     5.0423     4.2103 H       
  23 H23           -3.5906     2.0393     4.2089 H       
  24 H24           -3.0940     1.5415     1.8495 H       
@<TRIPOS>BOND
   1    1    2 1
   2    1    4 1
   3    1    5 am
   4    2    3 1
   5    2   15 1
   6    2   16 1
   7    3    4 1
   8    3   17 1
   9    3   18 1
  10    4   19 1
  11    4   20 1
  12    5    6 2
  13    5    7 2
  14    5    8 1
  15    8    9 ar
  16    8   13 ar
  17    9   10 ar
  18    9   21 1
  19   10   11 ar
  20   10   22 1
  21   11   12 ar
  22   11   14 1
  23   12   13 ar
  24   12   23 1
  25   13   24 1

#	End of record

