#	Name: ASD04220021
#	Creating user name:	WinNT
#	Creation time:	15. 06. 2019 20:48

#	Modifying user name:	WinNT
#	Modification time:	15. 06. 2019 20:48

#	Program:	/corina/corina34_cracker 3.40 0067  02.08.2006

@<TRIPOS>MOLECULE
ASD04220021
  64   66    0    0    0
SMALL
NO_CHARGES


@<TRIPOS>ATOM
   1 C1             0.0414     1.6422    -0.0334 C.3     
   2 N2            -0.0510     0.1839     0.0939 N.am    
   3 C3             0.8119    -0.6264    -0.7817 C.3     
   4 C4             2.2643    -0.3395    -0.4042 C.3     
   5 C5             2.5067     1.1429    -0.2915 C.ar    
   6 C6             3.8219     1.5865    -0.3707 C.ar    
   7 C7             4.1185     2.9322    -0.2659 C.ar    
   8 C8             3.0903     3.8518    -0.0789 C.ar    
   9 C9             1.7832     3.4077    -0.0046 C.ar    
  10 C10            1.4901     2.0545    -0.1139 C.ar    
  11 C11            0.5122    -2.0895    -0.5808 C.2     
  12 O12            1.1718    -2.7404     0.1945 O.2     
  13 O13           -0.4876    -2.6696    -1.2632 O.3     
  14 O14            3.3698     5.1782     0.0305 O.3     
  15 C15            2.2624     6.0611     0.2210 C.3     
  16 O16            5.4083     3.3559    -0.3446 O.3     
  17 C17            6.4095     2.3545    -0.5367 C.3     
  18 C18           -0.8914    -0.3911     0.9769 C.2     
  19 C19           -1.6719     0.4644     1.9413 C.3     
  20 C20           -2.5433    -0.4294     2.8260 C.3     
  21 C21           -3.3356     0.4392     3.8051 C.3     
  22 O22           -1.0196    -1.5969     0.9953 O.2     
  23 C23           -4.1939    -0.4412     4.6764 C.ar    
  24 C24           -3.6613    -1.0137     5.8223 C.ar    
  25 C25           -4.4513    -1.8235     6.6243 C.ar    
  26 C26           -5.7689    -2.0597     6.2825 C.ar    
  27 C27           -6.3014    -1.4870     5.1372 C.ar    
  28 C28           -5.5124    -0.6735     4.3373 C.ar    
  29 O29           -7.5983    -1.7195     4.8008 O.3     
  30 C30           -8.3535    -2.5633     5.6725 C.3     
  31 O31           -2.3645    -0.7812     6.1588 O.3     
  32 C32           -1.8824    -1.4027     7.3518 C.3     
  33 C33           -0.7194    -4.0821    -1.0194 C.3     
  34 H34           -0.4772     1.9609    -0.9376 H       
  35 H35           -0.4217     2.1121     0.8343 H       
  36 H36            0.6407    -0.3536    -1.8231 H       
  37 H37            2.4862    -0.8128     0.5523 H       
  38 H38            2.9218    -0.7531    -1.1689 H       
  39 H39            4.6194     0.8727    -0.5153 H       
  40 H40            0.9834     4.1189     0.1400 H       
  41 H41            1.5792     5.9744    -0.6238 H       
  42 H42            1.7397     5.7952     1.1398 H       
  43 H43            2.6237     7.0870     0.2924 H       
  44 H44            6.3829     1.6499     0.2945 H       
  45 H45            6.2182     1.8237    -1.4693 H       
  46 H46            7.3912     2.8262    -0.5820 H       
  47 H47           -0.9809     1.0308     2.5658 H       
  48 H48           -2.3064     1.1536     1.3842 H       
  49 H49           -3.2342    -0.9958     2.2015 H       
  50 H50           -1.9087    -1.1186     3.3831 H       
  51 H51           -2.6447     1.0055     4.4296 H       
  52 H52           -3.9702     1.1284     3.2480 H       
  53 H53           -4.0365    -2.2697     7.5160 H       
  54 H54           -6.3840    -2.6906     6.9069 H       
  55 H55           -5.9284    -0.2242     3.4476 H       
  56 H56           -7.8837    -3.5455     5.7243 H       
  57 H57           -8.3840    -2.1220     6.6687 H       
  58 H58           -9.3687    -2.6658     5.2893 H       
  59 H59           -1.9713    -2.4851     7.2591 H       
  60 H60           -0.8365    -1.1358     7.5034 H       
  61 H61           -2.4715    -1.0613     8.2029 H       
  62 H62           -0.9561    -4.2351     0.0335 H       
  63 H63           -1.5529    -4.4247    -1.6327 H       
  64 H64            0.1768    -4.6470    -1.2761 H       
@<TRIPOS>BOND
   1    1    2 1
   2    1   10 1
   3    1   34 1
   4    1   35 1
   5    2    3 1
   6    2   18 am
   7    3    4 1
   8    3   11 1
   9    3   36 1
  10    4    5 1
  11    4   37 1
  12    4   38 1
  13    5    6 ar
  14    5   10 ar
  15    6    7 ar
  16    6   39 1
  17    7    8 ar
  18    7   16 1
  19    8    9 ar
  20    8   14 1
  21    9   10 ar
  22    9   40 1
  23   11   12 2
  24   11   13 1
  25   13   33 1
  26   14   15 1
  27   15   41 1
  28   15   42 1
  29   15   43 1
  30   16   17 1
  31   17   44 1
  32   17   45 1
  33   17   46 1
  34   18   19 1
  35   18   22 2
  36   19   20 1
  37   19   47 1
  38   19   48 1
  39   20   21 1
  40   20   49 1
  41   20   50 1
  42   21   23 1
  43   21   51 1
  44   21   52 1
  45   23   24 ar
  46   23   28 ar
  47   24   25 ar
  48   24   31 1
  49   25   26 ar
  50   25   53 1
  51   26   27 ar
  52   26   54 1
  53   27   28 ar
  54   27   29 1
  55   28   55 1
  56   29   30 1
  57   30   56 1
  58   30   57 1
  59   30   58 1
  60   31   32 1
  61   32   59 1
  62   32   60 1
  63   32   61 1
  64   33   62 1
  65   33   63 1
  66   33   64 1

#	End of record

