#	Name: ASD02500732
#	Creating user name:	WinNT
#	Creation time:	15. 06. 2019 20:23

#	Modifying user name:	WinNT
#	Modification time:	15. 06. 2019 20:23

#	Program:	/corina/corina34_cracker 3.40 0067  02.08.2006

@<TRIPOS>MOLECULE
ASD02500732
  49   49    0    0    0
SMALL
NO_CHARGES


@<TRIPOS>ATOM
   1 P1            -0.1921     2.1930    -0.1802 P.3     
   2 N2             0.0114     0.5563     0.1552 N.3     
   3 C3            -1.2802    -0.1434     0.1662 C.3     
   4 C4             0.9388    -0.0653    -0.7995 C.3     
   5 N5             1.1044     3.0605     0.4515 N.3     
   6 C6             1.2884     2.7672     1.8792 C.3     
   7 C7             2.3353     2.7923    -0.3039 C.3     
   8 N8            -0.2603     2.4199    -1.8464 N.3     
   9 C9            -1.5034     1.8688    -2.4023 C.3     
  10 C10           -0.1142     3.8405    -2.1906 C.3     
  11 O11           -1.5617     2.7116     0.4886 O.3     
  12 N12           -1.9877     3.9783     0.0206 N.pl3   
  13 N13           -2.8700     4.2276    -1.0411 N.2     
  14 N14           -3.0248     5.4971    -1.1798 N.2     
  15 C15           -2.2916     6.1612    -0.2638 C.ar    
  16 C16           -1.6226     5.2055     0.5209 C.ar    
  17 C17           -2.1086     7.5225     0.0112 C.ar    
  18 C18           -1.2838     7.9069     1.0275 C.ar    
  19 C19           -0.6187     6.9624     1.7984 C.ar    
  20 C20           -0.7920     5.6178     1.5572 C.ar    
  21 H21           -1.7076    -0.1329    -0.8365 H       
  22 H22           -1.1321    -1.1745     0.4872 H       
  23 H23           -1.9592     0.3580     0.8559 H       
  24 H24            1.9127     0.4189    -0.7278 H       
  25 H25            1.0422    -1.1254    -0.5679 H       
  26 H26            0.5497     0.0493    -1.8112 H       
  27 H27            1.5898     1.7268     2.0004 H       
  28 H28            2.0607     3.4192     2.2874 H       
  29 H29            0.3513     2.9381     2.4089 H       
  30 H30            2.1492     2.9431    -1.3673 H       
  31 H31            3.1204     3.4721     0.0274 H       
  32 H32            2.6499     1.7629    -0.1325 H       
  33 H33           -2.3555     2.2660    -1.8508 H       
  34 H34           -1.5875     2.1491    -3.4523 H       
  35 H35           -1.4894     0.7822    -2.3163 H       
  36 H36            0.8741     4.1877    -1.8889 H       
  37 H37           -0.2309     3.9675    -3.2669 H       
  38 H38           -0.8772     4.4205    -1.6715 H       
  39 H39           -2.6197     8.2670    -0.5811 H       
  40 H40           -1.1461     8.9579     1.2348 H       
  41 H41            0.0306     7.2843     2.5992 H       
  42 H42           -0.2745     4.8871     2.1611 H       
  43 P43            9.7901    15.6277     9.2691 P.3     
  44 F44            9.8128    13.9579     9.2599 F       
  45 F45           11.4599    15.6504     9.2532 F       
  46 F46            9.7742    15.6367     7.5992 F       
  47 F47            8.1204    15.6050     9.2849 F       
  48 F48            9.8061    15.6187    10.9390 F       
  49 F49            9.7675    17.2975     9.2782 F       
@<TRIPOS>BOND
   1    1    2 1
   2    1    5 1
   3    1    8 1
   4    1   11 1
   5    2    3 1
   6    2    4 1
   7    3   21 1
   8    3   22 1
   9    3   23 1
  10    4   24 1
  11    4   25 1
  12    4   26 1
  13    5    6 1
  14    5    7 1
  15    6   27 1
  16    6   28 1
  17    6   29 1
  18    7   30 1
  19    7   31 1
  20    7   32 1
  21    8    9 1
  22    8   10 1
  23    9   33 1
  24    9   34 1
  25    9   35 1
  26   10   36 1
  27   10   37 1
  28   10   38 1
  29   11   12 1
  30   12   13 1
  31   12   16 1
  32   13   14 2
  33   14   15 1
  34   15   16 ar
  35   15   17 ar
  36   16   20 ar
  37   17   18 ar
  38   17   39 1
  39   18   19 ar
  40   18   40 1
  41   19   20 ar
  42   19   41 1
  43   20   42 1
  44   43   44 1
  45   43   45 1
  46   43   46 1
  47   43   47 1
  48   43   48 1
  49   43   49 1

#	End of record

