#	Name: ASD03090657
#	Creating user name:	WinNT
#	Creation time:	15. 06. 2019 20:29

#	Modifying user name:	WinNT
#	Modification time:	15. 06. 2019 20:29

#	Program:	/corina/corina34_cracker 3.40 0067  02.08.2006

@<TRIPOS>MOLECULE
ASD03090657
  36   37    0    0    0
SMALL
NO_CHARGES


@<TRIPOS>ATOM
   1 N1            -0.1822     1.5470     0.2408 N.am    
   2 C2             0.2372     0.2847     0.4581 C.2     
   3 O3             1.4056     0.0681     0.7156 O.2     
   4 N4            -0.6386    -0.7375     0.3900 N.am    
   5 C5            -0.1855    -2.0561     0.5092 C.ar    
   6 C6            -0.9639    -3.0030     1.1624 C.ar    
   7 C7            -0.5142    -4.3035     1.2780 C.ar    
   8 C8             0.7100    -4.6634     0.7446 C.ar    
   9 C9             1.4874    -3.7231     0.0942 C.ar    
  10 C10            1.0405    -2.4219    -0.0301 C.ar    
  11 C11           -1.3581    -5.3315     1.9865 C.3     
  12 F12           -2.2064    -5.9541     1.0646 F       
  13 F13           -0.5275    -6.2899     2.5771 F       
  14 F14           -2.1238    -4.7049     2.9756 F       
  15 C15            0.7018     2.6201     0.4206 C.ar    
  16 C16            0.5270     3.7923    -0.3030 C.ar    
  17 C17            1.3971     4.8492    -0.1257 C.ar    
  18 C18            2.4475     4.7402     0.7766 C.ar    
  19 C19            2.6221     3.5679     1.5001 C.ar    
  20 C20            1.7483     2.5127     1.3263 C.ar    
  21 C21           -0.6124     3.9104    -1.2823 C.3     
  22 N22            3.3298     5.8112     0.9561 N.pl3   
  23 H23           -1.0946     1.7127    -0.0439 H       
  24 H24           -1.5829    -0.5591     0.2583 H       
  25 H25           -1.9197    -2.7224     1.5797 H       
  26 H26            1.0597    -5.6811     0.8366 H       
  27 H27            2.4431    -4.0072    -0.3209 H       
  28 H28            1.6461    -1.6889    -0.5422 H       
  29 H29            1.2613     5.7608    -0.6888 H       
  30 H30            3.4389     3.4828     2.2015 H       
  31 H31            1.8816     1.6025     1.8920 H       
  32 H32           -1.4895     4.3093    -0.7728 H       
  33 H33           -0.3267     4.5808    -2.0929 H       
  34 H34           -0.8449     2.9264    -1.6896 H       
  35 H35            3.2079     6.6299     0.4504 H       
  36 H36            4.0633     5.7349     1.5862 H       
@<TRIPOS>BOND
   1    1    2 am
   2    1   15 1
   3    1   23 1
   4    2    3 2
   5    2    4 am
   6    4    5 1
   7    4   24 1
   8    5    6 ar
   9    5   10 ar
  10    6    7 ar
  11    6   25 1
  12    7    8 ar
  13    7   11 1
  14    8    9 ar
  15    8   26 1
  16    9   10 ar
  17    9   27 1
  18   10   28 1
  19   11   12 1
  20   11   13 1
  21   11   14 1
  22   15   16 ar
  23   15   20 ar
  24   16   17 ar
  25   16   21 1
  26   17   18 ar
  27   17   29 1
  28   18   19 ar
  29   18   22 1
  30   19   20 ar
  31   19   30 1
  32   20   31 1
  33   21   32 1
  34   21   33 1
  35   21   34 1
  36   22   35 1
  37   22   36 1

#	End of record

