#	Name: ASD00450055
#	Creating user name:	WinNT
#	Creation time:	15. 06. 2019 18:36

#	Modifying user name:	WinNT
#	Modification time:	15. 06. 2019 18:36

#	Program:	/corina/corina34_cracker 3.40 0067  02.08.2006

@<TRIPOS>MOLECULE
ASD00450055
  51   54    0    0    0
SMALL
NO_CHARGES


@<TRIPOS>ATOM
   1 C1            -0.1919     1.4521     0.2866 C.ar    
   2 C2            -0.3509     0.0578     0.3118 C.ar    
   3 C3             0.7557    -0.7580     0.4750 C.ar    
   4 C4             2.0179    -0.2032     0.6140 C.ar    
   5 C5             2.1872     1.1708     0.5913 C.ar    
   6 C6             1.0922     2.0059     0.4279 C.ar    
   7 C7            -1.3598     2.3271     0.1077 C.2     
   8 O8            -1.9774     2.7232     1.0781 O.2     
   9 N9            -1.7461     2.6903    -1.1313 N.am    
  10 N10            1.2637     3.3844     0.4048 N.pl3   
  11 C11            2.3424     3.9665     1.0792 C.ar    
  12 C12            2.7604     5.2511     0.7478 C.ar    
  13 C13            2.9944     3.2655     2.0848 C.ar    
  14 C14            4.0589     3.8429     2.7495 C.ar    
  15 C15            4.4764     5.1185     2.4148 C.ar    
  16 C16            3.8267     5.8230     1.4171 C.ar    
  17 F17            3.0907    -1.0087     0.7732 F       
  18 F18            2.1260     5.9387    -0.2269 F       
  19 I19            6.0915     5.9886     3.4265 I       
  20 O20           -1.5850    -0.4887     0.1770 O.3     
  21 C21           -1.7067    -1.8346     0.3251 C.ar    
  22 C22           -1.8422    -2.6468    -0.7919 C.ar    
  23 C23           -1.9650    -4.0177    -0.6363 C.ar    
  24 C24           -1.6897    -2.3978     1.5924 C.ar    
  25 C25           -1.8107    -3.7662     1.7477 C.ar    
  26 C26           -1.9504    -4.5829     0.6365 C.ar    
  27 N27           -2.1086    -4.8426    -1.7631 N.am    
  28 C28           -1.9245    -6.2922    -1.5787 C.3     
  29 C29           -2.6261    -6.6864    -0.2712 C.3     
  30 O30           -2.0613    -5.9287     0.8013 O.3     
  31 S31           -2.4730    -4.2076    -3.2485 S.o2    
  32 O32           -3.0756    -5.2553    -3.9959 O.2     
  33 O33           -3.1092    -2.9602    -3.0066 O.2     
  34 N34           -1.0381    -3.8628    -3.9997 N.am    
  35 H35            0.6346    -1.8310     0.4946 H       
  36 H36            3.1750     1.5935     0.7011 H       
  37 H37           -1.2537     2.3744    -1.9050 H       
  38 H38           -2.5166     3.2676    -1.2494 H       
  39 H39            0.6355     3.9432    -0.0789 H       
  40 H40            2.6693     2.2697     2.3475 H       
  41 H41            4.5657     3.2976     3.5319 H       
  42 H42            4.1525     6.8203     1.1609 H       
  43 H43           -1.8523    -2.2111    -1.7800 H       
  44 H44           -1.5812    -1.7652     2.4610 H       
  45 H45           -1.7968    -4.1997     2.7368 H       
  46 H46           -2.3706    -6.8310    -2.4148 H       
  47 H47           -0.8617    -6.5246    -1.5128 H       
  48 H48           -3.6918    -6.4710    -0.3491 H       
  49 H49           -2.4791    -7.7501    -0.0840 H       
  50 H50           -0.1987    -4.0449    -3.5489 H       
  51 H51           -1.0369    -3.4789    -4.8905 H       
@<TRIPOS>BOND
   1    1    2 ar
   2    1    6 ar
   3    1    7 1
   4    2    3 ar
   5    2   20 1
   6    3    4 ar
   7    3   35 1
   8    4    5 ar
   9    4   17 1
  10    5    6 ar
  11    5   36 1
  12    6   10 1
  13    7    8 2
  14    7    9 am
  15    9   37 1
  16    9   38 1
  17   10   11 1
  18   10   39 1
  19   11   13 ar
  20   11   12 ar
  21   12   16 ar
  22   12   18 1
  23   13   14 ar
  24   13   40 1
  25   14   15 ar
  26   14   41 1
  27   15   16 ar
  28   15   19 1
  29   16   42 1
  30   20   21 1
  31   21   22 ar
  32   21   24 ar
  33   22   23 ar
  34   22   43 1
  35   23   26 ar
  36   23   27 1
  37   24   25 ar
  38   24   44 1
  39   25   26 ar
  40   25   45 1
  41   26   30 1
  42   27   28 1
  43   27   31 am
  44   28   29 1
  45   28   46 1
  46   28   47 1
  47   29   30 1
  48   29   48 1
  49   29   49 1
  50   31   32 2
  51   31   33 2
  52   31   34 am
  53   34   50 1
  54   34   51 1

#	End of record

