#	Name: ASD00170498
#	Creating user name:	WinNT
#	Creation time:	15. 06. 2019 18:32

#	Modifying user name:	WinNT
#	Modification time:	15. 06. 2019 18:32

#	Program:	/corina/corina34_cracker 3.40 0067  02.08.2006

@<TRIPOS>MOLECULE
ASD00170498
  28   30    0    0    0
SMALL
NO_CHARGES


@<TRIPOS>ATOM
   1 C1            -0.4151     1.2635     1.1219 C.ar    
   2 C2            -0.3085    -0.0970     0.8746 C.ar    
   3 C3             0.6728    -0.8446     1.5107 C.ar    
   4 C4             1.5419    -0.2309     2.3895 C.ar    
   5 C5             1.4369     1.1298     2.6341 C.ar    
   6 C6             0.4567     1.8772     2.0013 C.ar    
   7 C7             2.6080    -1.0373     3.0920 C.3     
   8 C8             3.9816    -0.6345     2.5515 C.3     
   9 C9             4.4982     0.5924     3.3017 C.3     
  10 C10            3.5911     1.7694     3.0915 C.2     
  11 O11            2.3088     1.7234     3.4959 O.3     
  12 O12            4.0155     2.7656     2.5552 O.2     
  13 O13           -1.1664    -0.6991     0.0086 O.3     
  14 C14           -1.0766    -2.1203    -0.1108 C.3     
  15 O15           -1.5344    -2.9111     0.9878 O.3     
  16 C16           -2.3827    -2.9154    -0.1621 C.3     
  17 H17           -1.1770     1.8446     0.6236 H       
  18 H18            0.7557    -1.9042     1.3187 H       
  19 H19            0.3742     2.9365     2.1948 H       
  20 H20            2.5663    -0.8410     4.1633 H       
  21 H21            2.4416    -2.0988     2.9087 H       
  22 H22            4.6796    -1.4609     2.6853 H       
  23 H23            3.8986    -0.4011     1.4900 H       
  24 H24            4.5502     0.3657     4.3666 H       
  25 H25            5.4961     0.8398     2.9397 H       
  26 H26           -0.2306    -2.4939    -0.6878 H       
  27 H27           -3.3184    -2.3593    -0.1051 H       
  28 H28           -2.4046    -3.8174    -0.7738 H       
@<TRIPOS>BOND
   1    1    2 ar
   2    1    6 ar
   3    1   17 1
   4    2    3 ar
   5    2   13 1
   6    3    4 ar
   7    3   18 1
   8    4    5 ar
   9    4    7 1
  10    5    6 ar
  11    5   11 1
  12    6   19 1
  13    7    8 1
  14    7   20 1
  15    7   21 1
  16    8    9 1
  17    8   22 1
  18    8   23 1
  19    9   10 1
  20    9   24 1
  21    9   25 1
  22   10   11 1
  23   10   12 2
  24   13   14 1
  25   14   15 1
  26   14   16 1
  27   14   26 1
  28   15   16 1
  29   16   27 1
  30   16   28 1

#	End of record

