#	Name: ASD01918187
#	Creating user name:	WinNT
#	Creation time:	15. 06. 2019 20:10

#	Modifying user name:	WinNT
#	Modification time:	15. 06. 2019 20:10

#	Program:	/corina/corina34_cracker 3.40 0067  02.08.2006

@<TRIPOS>MOLECULE
ASD01918187
  41   43    0    0    0
SMALL
NO_CHARGES


@<TRIPOS>ATOM
   1 N1             0.0426     1.3148     0.1322 N.ar    
   2 C2             0.0698    -0.0011     0.1439 C.ar    
   3 C3             1.2716    -0.6878     0.1658 C.ar    
   4 C4             2.4629     0.0236     0.1750 C.ar    
   5 C5             2.4072     1.4064     0.1619 C.ar    
   6 C6             1.1601     2.0345     0.1404 C.ar    
   7 N7             1.0881     3.4000     0.1277 N.2     
   8 N8            -0.0614     3.9851     0.1078 N.2     
   9 C9            -0.1333     5.3466     0.0951 C.ar    
  10 C10           -1.4468     7.3620     0.0670 C.ar    
  11 C11           -1.3795     5.9829     0.0793 C.ar    
  12 C12            1.0391     6.1109     0.1036 C.ar    
  13 C13            0.9648     7.4858     0.0913 C.ar    
  14 C14           -0.2733     8.1181     0.0708 C.ar    
  15 O15           -2.6561     7.9835     0.0521 O.3     
  16 C16           -3.8152     7.1477     0.0501 C.3     
  17 N17           -0.3432     9.5124     0.0578 N.am    
  18 C18            0.6796    10.2337    -0.4422 C.2     
  19 O19            1.6920     9.6745    -0.8166 O.2     
  20 C20            0.5704    11.7048    -0.5353 C.ar    
  21 C21            1.6278    12.4550    -1.0527 C.ar    
  22 C22           -0.5930    12.3496    -0.1117 C.ar    
  23 C23           -0.6886    13.7229    -0.2018 C.ar    
  24 C24            1.5192    13.8276    -1.1373 C.ar    
  25 C25            0.3652    14.4609    -0.7112 C.ar    
  26 H26           -0.8586    -0.5529     0.1366 H       
  27 H27            1.2819    -1.7677     0.1760 H       
  28 H28            3.4126    -0.4904     0.1925 H       
  29 H29            3.3150     1.9913     0.1689 H       
  30 H30           -2.2865     5.3967     0.0765 H       
  31 H31            2.0021     5.6223     0.1203 H       
  32 H32            1.8703     8.0744     0.0979 H       
  33 H33           -4.7109     7.7686     0.0377 H       
  34 H34           -3.8023     6.5108    -0.8344 H       
  35 H35           -3.8164     6.5260     0.9454 H       
  36 H36           -1.1278     9.9619     0.4087 H       
  37 H37            2.5292    11.9618    -1.3857 H       
  38 H38           -1.4165    11.7747     0.2854 H       
  39 H39           -1.5881    14.2230     0.1256 H       
  40 H40            2.3367    14.4092    -1.5371 H       
  41 H41            0.2849    15.5357    -0.7803 H       
@<TRIPOS>BOND
   1    1    2 ar
   2    1    6 ar
   3    2    3 ar
   4    2   26 1
   5    3    4 ar
   6    3   27 1
   7    4    5 ar
   8    4   28 1
   9    5    6 ar
  10    5   29 1
  11    6    7 1
  12    7    8 2
  13    8    9 1
  14    9   12 ar
  15    9   11 ar
  16   10   11 ar
  17   10   14 ar
  18   10   15 1
  19   11   30 1
  20   12   13 ar
  21   12   31 1
  22   13   14 ar
  23   13   32 1
  24   14   17 1
  25   15   16 1
  26   16   33 1
  27   16   34 1
  28   16   35 1
  29   17   18 am
  30   17   36 1
  31   18   19 2
  32   18   20 1
  33   20   21 ar
  34   20   22 ar
  35   21   24 ar
  36   21   37 1
  37   22   23 ar
  38   22   38 1
  39   23   25 ar
  40   23   39 1
  41   24   25 ar
  42   24   40 1
  43   25   41 1

#	End of record

