#	Name: ASD01148568
#	Creating user name:	WinNT
#	Creation time:	15. 06. 2019 19:02

#	Modifying user name:	WinNT
#	Modification time:	15. 06. 2019 19:02

#	Program:	/corina/corina34_cracker 3.40 0067  02.08.2006

@<TRIPOS>MOLECULE
ASD01148568
  49   52    0    0    0
SMALL
NO_CHARGES


@<TRIPOS>ATOM
   1 C1            -0.0169     1.4365    -0.0252 C.ar    
   2 C2             0.0192     0.0537    -0.0359 C.ar    
   3 C3            -1.1604    -0.6686    -0.0203 C.ar    
   4 C4            -2.3757    -0.0077     0.0060 C.ar    
   5 C5            -2.4112     1.3740     0.0167 C.ar    
   6 C6            -1.2327     2.0962     0.0064 C.ar    
   7 C7            -3.7351     2.0933     0.0454 C.3     
   8 O8            -4.7244     1.3251     0.7600 O.3     
   9 C9            -3.6497     3.3764     0.9060 C.3     
  10 C10           -4.1226     2.8945     2.2643 C.2     
  11 N11           -4.7049     1.7514     2.1080 N.2     
  12 C12           -3.9475     3.6065     3.5418 C.ar    
  13 C13           -4.4544     3.0255     4.7827 C.ar    
  14 C14           -3.2948     4.8311     3.5751 C.ar    
  15 C15           -3.1155     5.5212     4.7607 C.ar    
  16 C16           -3.5812     5.0187     5.9684 C.ar    
  17 C17           -4.2717     3.7313     5.9953 C.ar    
  18 C18           -3.3757     5.7761     7.2153 C.2     
  19 O19           -3.8761     5.3867     8.2525 O.2     
  20 N20           -2.6328     6.9006     7.2060 N.am    
  21 C21           -4.7577     3.1860     7.1902 C.ar    
  22 C22           -5.1139     1.7899     4.7969 C.ar    
  23 C23           -4.2112     2.4148    -1.3727 C.3     
  24 F24           -4.3447     1.2274    -2.1003 F       
  25 F25           -5.4476     3.0667    -1.3130 F       
  26 F26           -3.2765     3.2444    -2.0015 F       
  27 Cl27          -1.1161    -2.4040    -0.0343 Cl      
  28 Cl28           1.4630     2.3438    -0.0442 Cl      
  29 C29           -2.4447     7.5935     8.3466 C.2     
  30 O30           -1.7028     8.7165     8.3374 O.3     
  31 C31           -1.5427     9.4113     9.6023 C.3     
  32 O32           -2.9447     7.2044     9.3830 O.2     
  33 C33           -5.5707     1.2841     5.9776 C.ar    
  34 C34           -5.3959     1.9813     7.1700 C.ar    
  35 H35            0.9680    -0.4618    -0.0568 H       
  36 H36           -3.2968    -0.5715     0.0179 H       
  37 H37           -1.2610     3.1758     0.0147 H       
  38 H38           -2.6231     3.7385     0.9598 H       
  39 H39           -4.3136     4.1483     0.5166 H       
  40 H40           -2.9184     5.2543     2.6555 H       
  41 H41           -2.6019     6.4711     4.7466 H       
  42 H42           -2.2335     7.2113     6.3784 H       
  43 H43           -4.6274     3.7162     8.1220 H       
  44 H44           -5.2600     1.2414     3.8780 H       
  45 H45           -0.9247    10.2969     9.4547 H       
  46 H46           -2.5209     9.7096     9.9793 H       
  47 H47           -1.0623     8.7489    10.3224 H       
  48 H48           -6.0794     0.3315     5.9875 H       
  49 H49           -5.7703     1.5616     8.0920 H       
@<TRIPOS>BOND
   1    1    2 ar
   2    1   28 1
   3    1    6 ar
   4    2    3 ar
   5    2   35 1
   6    3    4 ar
   7    3   27 1
   8    4    5 ar
   9    4   36 1
  10    5    6 ar
  11    5    7 1
  12    6   37 1
  13    7    8 1
  14    7    9 1
  15    7   23 1
  16    8   11 1
  17    9   10 1
  18    9   38 1
  19    9   39 1
  20   10   11 2
  21   10   12 1
  22   12   13 ar
  23   12   14 ar
  24   13   22 ar
  25   13   17 ar
  26   14   15 ar
  27   14   40 1
  28   15   16 ar
  29   15   41 1
  30   16   17 ar
  31   16   18 1
  32   17   21 ar
  33   18   19 2
  34   18   20 am
  35   20   29 am
  36   20   42 1
  37   21   34 ar
  38   21   43 1
  39   22   33 ar
  40   22   44 1
  41   23   24 1
  42   23   25 1
  43   23   26 1
  44   29   30 1
  45   29   32 2
  46   30   31 1
  47   31   45 1
  48   31   46 1
  49   31   47 1
  50   33   34 ar
  51   33   48 1
  52   34   49 1

#	End of record

