#	Name: ASD03090340
#	Creating user name:	WinNT
#	Creation time:	15. 06. 2019 20:28

#	Modifying user name:	WinNT
#	Modification time:	15. 06. 2019 20:28

#	Program:	/corina/corina34_cracker 3.40 0067  02.08.2006

@<TRIPOS>MOLECULE
ASD03090340
  52   55    0    0    0
SMALL
NO_CHARGES


@<TRIPOS>ATOM
   1 C1            -0.2706     0.9509    -0.8459 C.ar    
   2 C2            -0.1361    -0.1849    -0.0578 C.ar    
   3 C3             1.1006    -0.7699     0.1122 C.ar    
   4 C4             2.2230    -0.2206    -0.5091 C.ar    
   5 C5             2.0891     0.9209    -1.2999 C.ar    
   6 C6             0.8453     1.5049    -1.4658 C.ar    
   7 C7             3.5507    -0.8466    -0.3294 C.2     
   8 N8             7.0651    -0.8700    -0.4225 N.pl3   
   9 C9             7.4927     0.3397    -0.9759 C.ar    
  10 C10            8.6879     0.9119    -0.5591 C.ar    
  11 C11            9.1085     2.1075    -1.1081 C.ar    
  12 C12            8.3413     2.7357    -2.0715 C.ar    
  13 C13            7.1494     2.1689    -2.4893 C.ar    
  14 C14            6.7263     0.9698    -1.9483 C.ar    
  15 N15            4.7158    -0.2747    -0.5616 N.2     
  16 C16            5.7003    -1.1339    -0.2909 C.2     
  17 N17            5.1793    -2.2673     0.1182 N.2     
  18 N18            3.7846    -2.1046     0.1078 N.pl3   
  19 C19            2.7815    -3.1030     0.4861 C.3     
  20 C20            2.5448    -3.0413     1.9964 C.3     
  21 C21            1.5130    -4.0684     2.3855 C.2     
  22 N22            1.1426    -4.1965     3.6751 N.am    
  23 C23            0.1395    -5.1950     4.0534 C.3     
  24 O24            1.0158    -4.7797     1.5383 O.2     
  25 C25            1.7431    -3.3373     4.6985 C.3     
  26 O26            0.7318     2.6229    -2.2343 O.3     
  27 C27           -0.5842     2.9653    -2.6821 C.3     
  28 C28           -1.5420     2.8547    -1.4882 C.3     
  29 O29           -1.5024     1.5068    -1.0062 O.3     
  30 Cl30           6.1891     2.9616    -3.6989 Cl      
  31 H31           -1.0036    -0.6113     0.4239 H       
  32 H32            1.2008    -1.6527     0.7262 H       
  33 H33            2.9555     1.3486    -1.7823 H       
  34 H34            7.7165    -1.5265    -0.1297 H       
  35 H35            9.2877     0.4224     0.1940 H       
  36 H36           10.0377     2.5525    -0.7841 H       
  37 H37            8.6724     3.6706    -2.4989 H       
  38 H38            5.7965     0.5275    -2.2745 H       
  39 H39            1.8477    -2.8961    -0.0368 H       
  40 H40            3.1375    -4.0968     0.2144 H       
  41 H41            3.4786    -3.2482     2.5192 H       
  42 H42            2.1888    -2.0476     2.2681 H       
  43 H43            0.6354    -6.1358     4.2922 H       
  44 H44           -0.4122    -4.8435     4.9253 H       
  45 H45           -0.5510    -5.3485     3.2241 H       
  46 H46            2.4613    -2.6634     4.2314 H       
  47 H47            0.9625    -2.7543     5.1871 H       
  48 H48            2.2523    -3.9549     5.4383 H       
  49 H49           -0.5886     3.9864    -3.0635 H       
  50 H50           -0.8956     2.2774    -3.4681 H       
  51 H51           -1.2267     3.5378    -0.6994 H       
  52 H52           -2.5551     3.1015    -1.8056 H       
@<TRIPOS>BOND
   1    1    2 ar
   2    1    6 ar
   3    1   29 1
   4    2    3 ar
   5    2   31 1
   6    3    4 ar
   7    3   32 1
   8    4    5 ar
   9    4    7 1
  10    5    6 ar
  11    5   33 1
  12    6   26 1
  13    7   15 2
  14    7   18 1
  15    8    9 1
  16    8   16 1
  17    8   34 1
  18    9   10 ar
  19    9   14 ar
  20   10   11 ar
  21   10   35 1
  22   11   12 ar
  23   11   36 1
  24   12   13 ar
  25   12   37 1
  26   13   14 ar
  27   13   30 1
  28   14   38 1
  29   15   16 1
  30   16   17 2
  31   17   18 1
  32   18   19 1
  33   19   20 1
  34   19   39 1
  35   19   40 1
  36   20   21 1
  37   20   41 1
  38   20   42 1
  39   21   22 am
  40   21   24 2
  41   22   23 1
  42   22   25 1
  43   23   43 1
  44   23   44 1
  45   23   45 1
  46   25   46 1
  47   25   47 1
  48   25   48 1
  49   26   27 1
  50   27   28 1
  51   27   49 1
  52   27   50 1
  53   28   29 1
  54   28   51 1
  55   28   52 1

#	End of record

