#	Name: ASD01890031
#	Creating user name:	WinNT
#	Creation time:	15. 06. 2019 19:50

#	Modifying user name:	WinNT
#	Modification time:	15. 06. 2019 19:50

#	Program:	/corina/corina34_cracker 3.40 0067  02.08.2006

@<TRIPOS>MOLECULE
ASD01890031
  18   19    0    0    0
SMALL
NO_CHARGES


@<TRIPOS>ATOM
   1 C1            -0.0156     1.2969     0.0092 C.2     
   2 N2             0.0021    -0.0041     0.0020 N.2     
   3 C3             1.2869    -0.4432    -0.0126 C.ar    
   4 C4             2.1092     0.6963    -0.0143 C.ar    
   5 N5             1.2552     1.7819    -0.0004 N.pl3   
   6 C6             1.8705    -1.7126    -0.0250 C.ar    
   7 C7             3.2424    -1.8342    -0.0388 C.ar    
   8 C8             4.0500    -0.7048    -0.0404 C.ar    
   9 C9             3.4896     0.5547    -0.0287 C.ar    
  10 C10           -1.2624     2.1432     0.0199 C.3     
  11 Cl11          -1.7510     2.4721     1.7240 Cl      
  12 Cl12           3.9672    -3.4116    -0.0536 Cl      
  13 H13            1.5138     2.7168     0.0017 H       
  14 H14            1.2482    -2.5953    -0.0234 H       
  15 H15            5.1244    -0.8137    -0.0509 H       
  16 H16            4.1234     1.4292    -0.0303 H       
  17 H17           -1.0659     3.0862    -0.4902 H       
  18 H18           -2.0655     1.6135    -0.4925 H       
@<TRIPOS>BOND
   1    1    2 2
   2    1    5 1
   3    1   10 1
   4    2    3 1
   5    3    4 ar
   6    3    6 ar
   7    4    5 1
   8    4    9 ar
   9    5   13 1
  10    6    7 ar
  11    6   14 1
  12    7    8 ar
  13    7   12 1
  14    8    9 ar
  15    8   15 1
  16    9   16 1
  17   10   11 1
  18   10   17 1
  19   10   18 1

#	End of record

