#	Name: ASD08070573
#	Creating user name:	WinNT
#	Creation time:	15. 06. 2019 21:15

#	Modifying user name:	WinNT
#	Modification time:	15. 06. 2019 21:15

#	Program:	/corina/corina34_cracker 3.40 0067  02.08.2006

@<TRIPOS>MOLECULE
ASD08070573
  39   40    0    0    0
SMALL
NO_CHARGES


@<TRIPOS>ATOM
   1 C1            -0.0168     1.3912     0.0097 C.ar    
   2 C2             0.0021    -0.0041     0.0020 C.ar    
   3 C3             1.2274    -0.6647    -0.0213 C.ar    
   4 C4             2.4073     0.0368    -0.0249 C.ar    
   5 C5             2.3860     1.4351    -0.0131 C.ar    
   6 C6             1.1593     2.1037     0.0023 C.ar    
   7 C7             3.6493     2.1984    -0.0164 C.2     
   8 O8             4.7141     1.6116    -0.0294 O.2     
   9 N9             3.6225     3.5458    -0.0050 N.am    
  10 C10            4.8764     4.3035    -0.0083 C.3     
  11 C11            4.6322     5.6912    -0.6045 C.3     
  12 C12            5.3889     4.4476     1.4261 C.3     
  13 C13            5.7511     3.0679     1.9794 C.3     
  14 C14            4.2396     5.5518    -2.0767 C.3     
  15 C15            3.9955     6.9395    -2.6730 C.3     
  16 O16           -1.0315    -0.8878     0.0248 O.3     
  17 C17           -0.5694    -2.1697    -0.4331 C.3     
  18 C18            0.9291    -2.1516    -0.0491 C.3     
  19 H19           -0.9613     1.9149     0.0170 H       
  20 H20            3.3500    -0.4900    -0.0364 H       
  21 H21            1.1347     3.1834     0.0083 H       
  22 H22            2.7730     4.0140     0.0054 H       
  23 H23            5.6182     3.7758    -0.6078 H       
  24 H24            3.8277     6.1846    -0.0591 H       
  25 H25            5.5424     6.2857    -0.5259 H       
  26 H26            6.2726     5.0856     1.4337 H       
  27 H27            4.6122     4.8953     2.0461 H       
  28 H28            4.8673     2.4300     1.9717 H       
  29 H29            6.5277     2.6203     1.3593 H       
  30 H30            6.1162     3.1707     3.0013 H       
  31 H31            5.0441     5.0584    -2.6222 H       
  32 H32            3.3294     4.9573    -2.1554 H       
  33 H33            3.1910     7.4329    -2.1276 H       
  34 H34            4.9057     7.5341    -2.5944 H       
  35 H35            3.7158     6.8403    -3.7218 H       
  36 H36           -1.0907    -2.9753     0.0839 H       
  37 H37           -0.6902    -2.2605    -1.5126 H       
  38 H38            1.5311    -2.6556    -0.8051 H       
  39 H39            1.0850    -2.5986     0.9327 H       
@<TRIPOS>BOND
   1    1    2 ar
   2    1    6 ar
   3    1   19 1
   4    2    3 ar
   5    2   16 1
   6    3    4 ar
   7    3   18 1
   8    4    5 ar
   9    4   20 1
  10    5    6 ar
  11    5    7 1
  12    6   21 1
  13    7    8 2
  14    7    9 am
  15    9   10 1
  16    9   22 1
  17   10   11 1
  18   10   12 1
  19   10   23 1
  20   11   14 1
  21   11   24 1
  22   11   25 1
  23   12   13 1
  24   12   26 1
  25   12   27 1
  26   13   28 1
  27   13   29 1
  28   13   30 1
  29   14   15 1
  30   14   31 1
  31   14   32 1
  32   15   33 1
  33   15   34 1
  34   15   35 1
  35   16   17 1
  36   17   18 1
  37   17   36 1
  38   17   37 1
  39   18   38 1
  40   18   39 1

#	End of record

