#	Name: ASD01150988
#	Creating user name:	WinNT
#	Creation time:	15. 06. 2019 19:05

#	Modifying user name:	WinNT
#	Modification time:	15. 06. 2019 19:05

#	Program:	/corina/corina34_cracker 3.40 0067  02.08.2006

@<TRIPOS>MOLECULE
ASD01150988
  44   46    0    0    0
SMALL
NO_CHARGES


@<TRIPOS>ATOM
   1 C1            -0.0155     1.2933     0.0092 C.2     
   2 N2             0.0021    -0.0041     0.0020 N.2     
   3 C3            -1.2836    -0.4574     0.0118 C.2     
   4 C4            -2.1000     0.6603     0.0256 C.2     
   5 O5            -1.2849     1.7299     0.0294 O.3     
   6 C6             1.2052     2.1769     0.0022 C.3     
   7 N7            -3.4820     0.6743     0.0385 N.am    
   8 C8            -1.7174    -1.8572     0.0080 C.2     
   9 O9            -2.9035    -2.1264     0.0175 O.2     
  10 O10           -0.8012    -2.8471    -0.0060 O.3     
  11 C11           -1.3030    -4.2096    -0.0089 C.3     
  12 C12           -0.1257    -5.1866    -0.0253 C.3     
  13 C13           -4.1439     1.8482     0.0511 C.2     
  14 C14           -5.6508     1.8635     0.0651 C.3     
  15 O15           -3.5270     2.8922     0.0513 O.2     
  16 O16            1.5779     2.4639    -1.3471 O.3     
  17 C17           -6.1625     1.2508     1.3759 C.3     
  18 O18           -7.5935     1.2929     1.3616 O.3     
  19 C19           -8.1672     2.4647     0.9737 C.ar    
  20 C20           -7.4324     3.4228     0.2856 C.ar    
  21 O21           -6.1208     3.2137    -0.0119 O.3     
  22 C22           -9.5013     2.7007     1.2705 C.ar    
  23 C23          -10.0984     3.8846     0.8811 C.ar    
  24 C24           -9.3681     4.8366     0.1942 C.ar    
  25 C25           -8.0380     4.6084    -0.1033 C.ar    
  26 C26            2.7307     3.2998    -1.4665 C.3     
  27 H27            0.9828     3.1079     0.5236 H       
  28 H28            2.0264     1.6661     0.5051 H       
  29 H29           -3.9755    -0.1608     0.0383 H       
  30 H30           -1.9025    -4.3780     0.8857 H       
  31 H31           -1.9189    -4.3681    -0.8942 H       
  32 H32            0.4738    -5.0183    -0.9199 H       
  33 H33            0.4903    -5.0282     0.8599 H       
  34 H34           -0.5023    -6.2095    -0.0275 H       
  35 H35           -6.0320     1.2920    -0.7812 H       
  36 H36           -5.8259     0.2171     1.4546 H       
  37 H37           -5.7862     1.8259     2.2220 H       
  38 H38          -10.0743     1.9583     1.8063 H       
  39 H39          -11.1373     4.0663     1.1135 H       
  40 H40           -9.8379     5.7602    -0.1102 H       
  41 H41           -7.4698     5.3537    -0.6401 H       
  42 H42            2.9481     3.4706    -2.5209 H       
  43 H43            2.5399     4.2541    -0.9756 H       
  44 H44            3.5835     2.8123    -0.9941 H       
@<TRIPOS>BOND
   1    1    2 2
   2    1    6 1
   3    1    5 1
   4    2    3 1
   5    3    4 2
   6    3    8 1
   7    4    5 1
   8    4    7 1
   9    6   16 1
  10    6   27 1
  11    6   28 1
  12    7   13 am
  13    7   29 1
  14    8    9 2
  15    8   10 1
  16   10   11 1
  17   11   12 1
  18   11   30 1
  19   11   31 1
  20   12   32 1
  21   12   33 1
  22   12   34 1
  23   13   14 1
  24   13   15 2
  25   14   17 1
  26   14   21 1
  27   14   35 1
  28   16   26 1
  29   17   18 1
  30   17   36 1
  31   17   37 1
  32   18   19 1
  33   19   20 ar
  34   19   22 ar
  35   20   21 1
  36   20   25 ar
  37   22   23 ar
  38   22   38 1
  39   23   24 ar
  40   23   39 1
  41   24   25 ar
  42   24   40 1
  43   25   41 1
  44   26   42 1
  45   26   43 1
  46   26   44 1

#	End of record

