#	Name: ASD01883198
#	Creating user name:	WinNT
#	Creation time:	15. 06. 2019 19:46

#	Modifying user name:	WinNT
#	Modification time:	15. 06. 2019 19:46

#	Program:	/corina/corina34_cracker 3.40 0067  02.08.2006

@<TRIPOS>MOLECULE
ASD01883198
  50   52    0    0    0
SMALL
NO_CHARGES


@<TRIPOS>ATOM
   1 N1             0.9092    -1.4769     0.7369 N.am    
   2 C2             0.4815    -2.6466     0.2267 C.2     
   3 C3            -0.9072    -2.8945     0.0952 C.2     
   4 C4            -1.8122    -1.8998     0.5063 C.2     
   5 C5            -1.3018    -0.6967     1.0324 C.2     
   6 C6             0.0345    -0.5190     1.1384 C.2     
   7 O7             1.2881    -3.4916    -0.1223 O.2     
   8 C8            -1.3798    -4.1332    -0.4460 C.1     
   9 N9            -1.7547    -5.1159    -0.8753 N.1     
  10 C10            2.3482    -1.2346     0.8674 C.3     
  11 C11            2.8734    -0.5811    -0.4124 C.3     
  12 C12            4.3762    -0.3280    -0.2761 C.3     
  13 C13            4.9249     0.2097    -1.5992 C.3     
  14 C14            4.6222     0.6974     0.8324 C.3     
  15 C15           -3.2697    -2.1121     0.3884 C.ar    
  16 C16           -4.0624    -2.1818     1.5366 C.ar    
  17 C17           -5.4207    -2.3799     1.4226 C.ar    
  18 C18           -6.0029    -2.5103     0.1672 C.ar    
  19 C19           -5.2175    -2.4415    -0.9775 C.ar    
  20 C20           -3.8594    -2.2380    -0.8719 C.ar    
  21 O21           -7.3418    -2.7058     0.0589 O.3     
  22 C22           -8.0864    -2.6594     1.1929 C.ar    
  23 C23           -8.6065    -1.4473     1.6312 C.ar    
  24 C24           -9.3622    -1.3957     2.7815 C.ar    
  25 C25           -9.6061    -2.5645     3.5081 C.ar    
  26 C26           -9.0815    -3.7813     3.0635 C.ar    
  27 C27           -8.3313    -3.8249     1.9093 C.ar    
  28 C28          -10.3908    -2.5153     4.7049 C.1     
  29 N29          -11.0133    -2.4763     5.6543 N.1     
  30 H30           -1.9775     0.0817     1.3547 H       
  31 H31            0.4142     0.4075     1.5432 H       
  32 H32            2.5298    -0.5728     1.7143 H       
  33 H33            2.8629    -2.1817     1.0294 H       
  34 H34            2.6917    -1.2428    -1.2592 H       
  35 H35            2.3587     0.3660    -0.5744 H       
  36 H36            4.8806    -1.2614    -0.0261 H       
  37 H37            4.4205     1.1431    -1.8492 H       
  38 H38            5.9955     0.3900    -1.5021 H       
  39 H39            4.7496    -0.5209    -2.3889 H       
  40 H40            4.1178     1.6308     0.5824 H       
  41 H41            4.2313     0.3144     1.7751 H       
  42 H42            5.6928     0.8777     0.9295 H       
  43 H43           -3.6108    -2.0809     2.5124 H       
  44 H44           -6.0341    -2.4342     2.3098 H       
  45 H45           -5.6734    -2.5437    -1.9512 H       
  46 H46           -3.2499    -2.1843    -1.7618 H       
  47 H47           -8.4176    -0.5446     1.0692 H       
  48 H48           -9.7654    -0.4534     3.1219 H       
  49 H49           -9.2677    -4.6867     3.6221 H       
  50 H50           -7.9259    -4.7648     1.5649 H       
@<TRIPOS>BOND
   1    1    2 am
   2    1   10 1
   3    1    6 1
   4    2    3 1
   5    2    7 2
   6    3    4 2
   7    3    8 1
   8    4    5 1
   9    4   15 1
  10    5    6 2
  11    5   30 1
  12    6   31 1
  13    8    9 3
  14   10   11 1
  15   10   32 1
  16   10   33 1
  17   11   12 1
  18   11   34 1
  19   11   35 1
  20   12   13 1
  21   12   14 1
  22   12   36 1
  23   13   37 1
  24   13   38 1
  25   13   39 1
  26   14   40 1
  27   14   41 1
  28   14   42 1
  29   15   16 ar
  30   15   20 ar
  31   16   17 ar
  32   16   43 1
  33   17   18 ar
  34   17   44 1
  35   18   19 ar
  36   18   21 1
  37   19   20 ar
  38   19   45 1
  39   20   46 1
  40   21   22 1
  41   22   23 ar
  42   22   27 ar
  43   23   24 ar
  44   23   47 1
  45   24   25 ar
  46   24   48 1
  47   25   26 ar
  48   25   28 1
  49   26   27 ar
  50   26   49 1
  51   27   50 1
  52   28   29 3

#	End of record

