#	Name: ASD01200405
#	Creating user name:	WinNT
#	Creation time:	15. 06. 2019 19:09

#	Modifying user name:	WinNT
#	Modification time:	15. 06. 2019 19:09

#	Program:	/corina/corina34_cracker 3.40 0067  02.08.2006

@<TRIPOS>MOLECULE
ASD01200405
  55   59    0    0    0
SMALL
NO_CHARGES


@<TRIPOS>ATOM
   1 C1             0.3064     1.0905     1.6213 C.ar    
   2 C2             0.2290    -0.2175     1.1316 C.ar    
   3 C3             1.3053    -0.7581     0.4576 C.ar    
   4 C4             2.4629    -0.0070     0.2657 C.ar    
   5 C5             2.5510     1.2814     0.7436 C.ar    
   6 C6             3.6303    -0.6107    -0.4718 C.3     
   7 C7             3.4492    -0.4337    -1.9957 C.3     
   8 C8             4.2211     0.8809    -2.2543 C.3     
   9 C9             5.2191     0.9545    -1.1198 C.2     
  10 N10            4.8670     0.1059    -0.1386 N.am    
  11 C11           -0.6207     1.9508     2.3528 C.2     
  12 C12            1.4778     1.8463     1.4249 C.ar    
  13 N13            1.2748     3.0814     2.0043 N.pl3   
  14 C14            0.0150     3.1342     2.5585 C.2     
  15 C15            5.6208    -0.0798     1.1038 C.3     
  16 O16            1.2357    -2.0290    -0.0207 O.3     
  17 O17            6.1952     1.6740    -1.0988 O.2     
  18 C18            0.0532    -2.6891     0.0917 C.ar    
  19 C19           -2.1007    -3.2762    -0.7472 C.ar    
  20 C20           -2.2901    -4.0412     0.3888 C.ar    
  21 N21           -1.3583    -4.1142     1.3188 N.ar    
  22 C22           -0.2124    -3.4721     1.2057 C.ar    
  23 C23           -0.9110    -2.5847    -0.9064 C.ar    
  24 S24           -3.8001    -4.9242     0.6002 S.o2    
  25 O25           -3.9344    -5.0566     2.0087 O.2     
  26 O26           -4.7471    -4.1861    -0.1598 O.2     
  27 C27           -3.4905    -6.5398    -0.1644 C.3     
  28 C28           -0.5565     4.2952     3.2610 C.2     
  29 N29            0.0492     5.4331     3.4600 N.2     
  30 C30           -0.6188     6.3584     4.1083 C.2     
  31 C31           -1.8554     6.0238     4.4933 C.2     
  32 S32           -2.1713     4.3735     3.9612 S.3     
  33 C33           -2.8149     6.9074     5.2480 C.3     
  34 H34           -0.6675    -0.8010     1.2804 H       
  35 H35            3.4538     1.8537     0.5893 H       
  36 H36            3.7267    -1.6677    -0.2236 H       
  37 H37            3.8987    -1.2637    -2.5409 H       
  38 H38            2.3957    -0.3247    -2.2533 H       
  39 H39            4.7368     0.8381    -3.2137 H       
  40 H40            3.5433     1.7339    -2.2222 H       
  41 H41           -1.6211     1.6951     2.6693 H       
  42 H42            1.9215     3.8043     2.0184 H       
  43 H43            6.3590    -0.8699     0.9662 H       
  44 H44            6.1275     0.8496     1.3637 H       
  45 H45            4.9368    -0.3573     1.9058 H       
  46 H46           -2.8695    -3.2222    -1.5039 H       
  47 H47            0.5272    -3.5567     1.9882 H       
  48 H48           -0.7360    -1.9793    -1.7835 H       
  49 H49           -2.6588    -7.0286     0.3431 H       
  50 H50           -4.3832    -7.1594    -0.0786 H       
  51 H51           -3.2435    -6.4022    -1.2171 H       
  52 H52           -0.1961     7.3299     4.3181 H       
  53 H53           -3.4192     7.4751     4.5404 H       
  54 H54           -3.4653     6.2908     5.8684 H       
  55 H55           -2.2543     7.5953     5.8809 H       
@<TRIPOS>BOND
   1    1    2 ar
   2    1   12 ar
   3    1   11 1
   4    2    3 ar
   5    2   34 1
   6    3    4 ar
   7    3   16 1
   8    4    5 ar
   9    4    6 1
  10    5   12 ar
  11    5   35 1
  12    6    7 1
  13    6   10 1
  14    6   36 1
  15    7    8 1
  16    7   37 1
  17    7   38 1
  18    8    9 1
  19    8   39 1
  20    8   40 1
  21    9   10 am
  22    9   17 2
  23   10   15 1
  24   11   14 2
  25   11   41 1
  26   12   13 1
  27   13   14 1
  28   13   42 1
  29   14   28 1
  30   15   43 1
  31   15   44 1
  32   15   45 1
  33   16   18 1
  34   18   23 ar
  35   18   22 ar
  36   19   20 ar
  37   19   23 ar
  38   19   46 1
  39   20   21 ar
  40   20   24 1
  41   21   22 ar
  42   22   47 1
  43   23   48 1
  44   24   25 2
  45   24   26 2
  46   24   27 1
  47   27   49 1
  48   27   50 1
  49   27   51 1
  50   28   29 2
  51   28   32 1
  52   29   30 1
  53   30   31 2
  54   30   52 1
  55   31   32 1
  56   31   33 1
  57   33   53 1
  58   33   54 1
  59   33   55 1

#	End of record

