#	Name: ASD03910039
#	Creating user name:	WinNT
#	Creation time:	15. 06. 2019 20:47

#	Modifying user name:	WinNT
#	Modification time:	15. 06. 2019 20:47

#	Program:	/corina/corina34_cracker 3.40 0067  02.08.2006

@<TRIPOS>MOLECULE
ASD03910039
  68   70    0    0    0
SMALL
NO_CHARGES


@<TRIPOS>ATOM
   1 C1            -0.5578    -0.4439     0.4663 C.ar    
   2 C2             0.3618     0.1151     1.3346 C.ar    
   3 C3             0.0634     1.2899     2.0002 C.ar    
   4 C4            -1.1551     1.9084     1.7998 C.ar    
   5 C5            -2.0809     1.3495     0.9285 C.ar    
   6 C6            -1.7756     0.1729     0.2569 C.ar    
   7 N7            -3.3163     1.9737     0.7232 N.am    
   8 C8            -3.4000     3.3189     0.7240 C.2     
   9 O9            -2.4245     3.9871     0.9940 O.2     
  10 C10           -4.5322     5.4879     0.4607 C.ar    
  11 C11           -4.1457     6.1925    -0.6645 C.ar    
  12 C12           -3.9915     7.5639    -0.6030 C.ar    
  13 C13           -4.2247     8.2342     0.5890 C.ar    
  14 C14           -4.6124     7.5250     1.7166 C.ar    
  15 C15           -4.7653     6.1537     1.6499 C.ar    
  16 O16           -4.0732     9.5833     0.6522 O.3     
  17 C17           -4.2057    10.1915     1.9385 C.3     
  18 C18           -5.5826     9.9157     2.4852 C.2     
  19 C19           -0.2284    -1.7243    -0.2569 C.3     
  20 C20            1.0685     1.8956     2.9456 C.3     
  21 O21           -6.3728     9.2626     1.8371 O.2     
  22 N22           -5.9360    10.3948     3.6943 N.am    
  23 C23           -4.7058     3.9927     0.3892 C.3     
  24 C24           -3.1547     9.6118     2.8874 C.3     
  25 C25           -4.0004    11.7023     1.8118 C.3     
  26 C26           -7.2747    10.1266     4.2258 C.3     
  27 C27           -8.2406    11.1551     3.6964 C.2     
  28 O28           -7.8509    12.0230     2.9516 O.2     
  29 O29           -9.5340    11.1070     4.0523 O.3     
  30 C30           -7.2405    10.1980     5.7538 C.3     
  31 C31           -6.3698     9.0905     6.2890 C.ar    
  32 C32           -5.0176     9.3051     6.4794 C.ar    
  33 C33           -4.2189     8.2892     6.9703 C.ar    
  34 C34           -4.7726     7.0588     7.2712 C.ar    
  35 C35           -6.1250     6.8445     7.0817 C.ar    
  36 C36           -6.9245     7.8618     6.5949 C.ar    
  37 H37            1.3151    -0.3671     1.4936 H       
  38 H38           -1.3879     2.8255     2.3205 H       
  39 H39           -2.4933    -0.2640    -0.4217 H       
  40 H40           -4.1124     1.4383     0.5805 H       
  41 H41           -3.9639     5.6701    -1.5921 H       
  42 H42           -3.6892     8.1137    -1.4820 H       
  43 H43           -4.7943     8.0446     2.6458 H       
  44 H44           -5.0671     5.6011     2.5274 H       
  45 H45           -0.5516    -2.5745     0.3438 H       
  46 H46           -0.7429    -1.7417    -1.2177 H       
  47 H47            0.8478    -1.7830    -0.4201 H       
  48 H48            1.7136     2.5831     2.3985 H       
  49 H49            0.5455     2.4374     3.7337 H       
  50 H50            1.6735     1.1044     3.3885 H       
  51 H51           -5.3041    10.9171     4.2127 H       
  52 H52           -5.0127     3.7103    -0.6178 H       
  53 H53           -5.4688     3.6809     1.1024 H       
  54 H54           -2.1623     9.9310     2.5690 H       
  55 H55           -3.3435     9.9681     3.9000 H       
  56 H56           -3.2095     8.5233     2.8690 H       
  57 H57           -4.6988    12.1036     1.0774 H       
  58 H58           -4.1774    12.1753     2.7778 H       
  59 H59           -2.9788    11.9045     1.4900 H       
  60 H60           -7.5963     9.1324     3.9156 H       
  61 H61          -10.1154    11.7880     3.6873 H       
  62 H62           -6.8347    11.1610     6.0635 H       
  63 H63           -8.2516    10.0868     6.1454 H       
  64 H64           -4.5850    10.2663     6.2443 H       
  65 H65           -3.1623     8.4566     7.1184 H       
  66 H66           -4.1485     6.2649     7.6541 H       
  67 H67           -6.5576     5.8832     7.3165 H       
  68 H68           -7.9811     7.6944     6.4468 H       
@<TRIPOS>BOND
   1    1    2 ar
   2    1   19 1
   3    1    6 ar
   4    2    3 ar
   5    2   37 1
   6    3    4 ar
   7    3   20 1
   8    4    5 ar
   9    4   38 1
  10    5    6 ar
  11    5    7 1
  12    6   39 1
  13    7    8 am
  14    7   40 1
  15    8    9 2
  16    8   23 1
  17   10   11 ar
  18   10   15 ar
  19   10   23 1
  20   11   12 ar
  21   11   41 1
  22   12   13 ar
  23   12   42 1
  24   13   14 ar
  25   13   16 1
  26   14   15 ar
  27   14   43 1
  28   15   44 1
  29   16   17 1
  30   17   18 1
  31   17   24 1
  32   17   25 1
  33   18   21 2
  34   18   22 am
  35   19   45 1
  36   19   46 1
  37   19   47 1
  38   20   48 1
  39   20   49 1
  40   20   50 1
  41   22   26 1
  42   22   51 1
  43   23   52 1
  44   23   53 1
  45   24   54 1
  46   24   55 1
  47   24   56 1
  48   25   57 1
  49   25   58 1
  50   25   59 1
  51   26   27 1
  52   26   30 1
  53   26   60 1
  54   27   28 2
  55   27   29 1
  56   29   61 1
  57   30   31 1
  58   30   62 1
  59   30   63 1
  60   31   32 ar
  61   31   36 ar
  62   32   33 ar
  63   32   64 1
  64   33   34 ar
  65   33   65 1
  66   34   35 ar
  67   34   66 1
  68   35   36 ar
  69   35   67 1
  70   36   68 1

#	End of record

