#	Name: ASD00990110
#	Creating user name:	WinNT
#	Creation time:	15. 06. 2019 18:54

#	Modifying user name:	WinNT
#	Modification time:	15. 06. 2019 18:54

#	Program:	/corina/corina34_cracker 3.40 0067  02.08.2006

@<TRIPOS>MOLECULE
ASD00990110
  55   56    0    0    0
SMALL
NO_CHARGES


@<TRIPOS>ATOM
   1 Cl1            0.0000     0.0000     0.0000 Cl      
   2 H2             0.0000     1.3700     0.0000 H       
   3 N3             6.8600    24.5222     6.9535 N.am    
   4 C4             6.8783    23.1746     6.9461 C.2     
   5 O5             7.9367    22.5825     6.9328 O.2     
   6 C6             5.5836    22.4034     6.9543 C.3     
   7 N7             5.8708    20.9668     6.9438 N.am    
   8 C8             6.0272    20.1625     5.7263 C.3     
   9 C9             6.7327    18.8644     6.1777 C.3     
  10 C10            6.3204    18.7826     7.6657 C.3     
  11 H11            5.4294    18.1655     7.7813 H       
  12 N12            7.4200    18.2498     8.4739 N.am    
  13 C13            7.1591    17.6308     9.6424 C.2     
  14 O14            6.0140    17.5150    10.0248 O.2     
  15 C15            8.2902    17.0827    10.4737 C.3     
  16 H16            9.1267    17.7815    10.4681 H       
  17 C17            8.7420    15.7185     9.9113 C.3     
  18 C18            9.0473    14.8966    11.1911 C.3     
  19 H19           10.0451    15.1192    11.5693 H       
  20 C20            7.9574    15.4141    12.1627 C.3     
  21 N21            7.8330    16.8588    11.8574 N.3     
  22 N22            8.8914    13.4613    10.9427 N.am    
  23 C23            9.5604    12.5697    11.7003 C.2     
  24 O24           10.2934    12.9566    12.5901 O.2     
  25 C25            9.4035    11.1249    11.4503 C.ar    
  26 C26            8.5605    10.6897    10.4185 C.ar    
  27 C27            8.4031     9.3613    10.1728 C.ar    
  28 C28            9.1224     8.3861    10.9959 C.ar    
  29 C29            9.9701     8.8507    12.0347 C.ar    
  30 C30           10.1060    10.2033    12.2464 C.ar    
  31 O31           10.9204    10.6513    13.2351 O.3     
  32 N32            8.9831     7.0898    10.7741 N.2     
  33 N33            8.3094     6.7299     9.9496 N.1     
  34 N34            7.6356     6.3700     9.1250 N.pl3   
  35 C35            6.0305    20.2173     8.0481 C.2     
  36 O36            5.9512    20.6305     9.1856 O.2     
  37 H37            7.6933    25.0186     6.9482 H       
  38 H38            6.0134    24.9957     6.9601 H       
  39 H39            5.0170    22.6541     7.8511 H       
  40 H40            5.0000    22.6637     6.0712 H       
  41 H41            5.0515    19.9323     5.2983 H       
  42 H42            6.6427    20.6933     5.0000 H       
  43 H43            6.3598    18.0042     5.6217 H       
  44 H44            7.8144    18.9530     6.0769 H       
  45 H45            8.3358    18.3424     8.1680 H       
  46 H46            7.9405    15.2539     9.3370 H       
  47 H47            9.6389    15.8307     9.3022 H       
  48 H48            7.0121    14.9033    11.9793 H       
  49 H49            8.2722    15.2719    13.1966 H       
  50 H50            8.3657    17.4155    12.5089 H       
  51 H51            8.3067    13.1526    10.2330 H       
  52 H52            8.0325    11.4135     9.8153 H       
  53 H53            7.7527     9.0281     9.3775 H       
  54 H54           10.5087     8.1471    12.6521 H       
  55 H55           10.4804    10.7566    14.0897 H       
@<TRIPOS>BOND
   1    1    2 1
   2    3    4 am
   3    3   37 1
   4    3   38 1
   5    4    5 2
   6    4    6 1
   7    6    7 1
   8    6   39 1
   9    6   40 1
  10    7   35 am
  11    7    8 1
  12    8    9 1
  13    8   41 1
  14    8   42 1
  15    9   10 1
  16    9   43 1
  17    9   44 1
  18   10   11 1
  19   10   12 1
  20   10   35 1
  21   12   13 am
  22   12   45 1
  23   13   14 2
  24   13   15 1
  25   15   16 1
  26   15   21 1
  27   15   17 1
  28   17   18 1
  29   17   46 1
  30   17   47 1
  31   18   19 1
  32   18   20 1
  33   18   22 1
  34   20   21 1
  35   20   48 1
  36   20   49 1
  37   21   50 1
  38   22   23 am
  39   22   51 1
  40   23   24 2
  41   23   25 1
  42   25   30 ar
  43   25   26 ar
  44   26   27 ar
  45   26   52 1
  46   27   28 ar
  47   27   53 1
  48   28   29 ar
  49   28   32 1
  50   29   30 ar
  51   29   54 1
  52   30   31 1
  53   31   55 1
  54   32   33 2
  55   33   34 2
  56   35   36 2

#	End of record

