#	Name: ASD08150454
#	Creating user name:	WinNT
#	Creation time:	15. 06. 2019 21:16

#	Modifying user name:	WinNT
#	Modification time:	15. 06. 2019 21:16

#	Program:	/corina/corina34_cracker 3.40 0067  02.08.2006

@<TRIPOS>MOLECULE
ASD08150454
  54   58    0    0    0
SMALL
NO_CHARGES


@<TRIPOS>ATOM
   1 N1            -0.2307     5.4229    -0.5439 N.am    
   2 C2             0.7398     4.4943    -0.6468 C.2     
   3 C3             1.9294     4.7660    -1.3528 C.2     
   4 C4             2.1130     5.9747    -1.9423 C.2     
   5 C5             1.0938     6.9540    -1.8365 C.ar    
   6 C6             1.2335     8.2234    -2.4296 C.ar    
   7 N7             0.2918     9.1248    -2.3304 N.ar    
   8 C8            -0.8515     8.8980    -1.6659 C.ar    
   9 C9            -1.0780     7.6484    -1.0382 C.ar    
  10 C10           -0.0781     6.6517    -1.1262 C.ar    
  11 C11           -2.2727     7.4222    -0.3477 C.ar    
  12 C12           -3.2251     8.4265    -0.2850 C.ar    
  13 C13           -2.9938     9.6605    -0.9087 C.ar    
  14 C14           -1.8370     9.8955    -1.5839 C.ar    
  15 O15            0.5875     3.4045    -0.1219 O.2     
  16 C16           -4.4952     8.1948     0.4449 C.ar    
  17 C17           -1.4050     5.1269     0.1581 C.ar    
  18 C18           -2.4471     4.4638    -0.4769 C.ar    
  19 C19           -3.6042     4.1729     0.2186 C.ar    
  20 C20           -3.7260     4.5414     1.5459 C.ar    
  21 C21           -2.6903     5.2017     2.1812 C.ar    
  22 C22           -1.5283     5.4905     1.4928 C.ar    
  23 C23           -4.9904     4.2231     2.3016 C.3     
  24 C24           -5.0852     9.2247     1.1872 C.ar    
  25 C25           -5.1202     6.9520     0.3965 C.ar    
  26 N26           -6.2493     6.7413     1.0431 N.ar    
  27 C27           -6.8308     7.6923     1.7583 C.ar    
  28 C28           -6.2677     8.9625     1.8496 C.ar    
  29 C29           -5.1985     5.2600     3.4072 C.3     
  30 C30           -6.1807     4.2562     1.3409 C.3     
  31 N31           -8.0210     7.4207     2.4214 N.pl3   
  32 C32           -4.8801     2.8829     2.9002 C.1     
  33 N33           -4.7950     1.8485     3.3622 N.1     
  34 H34            2.6973     4.0099    -1.4246 H       
  35 H35            3.0228     6.1874    -2.4839 H       
  36 H36            2.1353     8.4568    -2.9761 H       
  37 H37           -2.4519     6.4717     0.1328 H       
  38 H38           -3.7445    10.4350    -0.8522 H       
  39 H39           -1.6754    10.8521    -2.0585 H       
  40 H40           -2.3528     4.1764    -1.5137 H       
  41 H41           -4.4149     3.6573    -0.2746 H       
  42 H42           -2.7886     5.4884     3.2177 H       
  43 H43           -0.7197     6.0062     1.9895 H       
  44 H44           -4.6261    10.2008     1.2407 H       
  45 H45           -4.6755     6.1521    -0.1770 H       
  46 H46           -6.7482     9.7323     2.4352 H       
  47 H47           -4.9180     6.2464     3.0378 H       
  48 H48           -6.2470     5.2682     3.7050 H       
  49 H49           -4.5787     5.0041     4.2666 H       
  50 H50           -6.4445     3.2382     1.0540 H       
  51 H51           -7.0318     4.7271     1.8329 H       
  52 H52           -5.9139     4.8267     0.4513 H       
  53 H53           -8.4208     6.5391     2.3588 H       
  54 H54           -8.4523     8.1126     2.9469 H       
@<TRIPOS>BOND
   1    1    2 am
   2    1   10 1
   3    1   17 1
   4    2    3 1
   5    2   15 2
   6    3    4 2
   7    3   34 1
   8    4    5 1
   9    4   35 1
  10    5    6 ar
  11    5   10 ar
  12    6    7 ar
  13    6   36 1
  14    7    8 ar
  15    8    9 ar
  16    8   14 ar
  17    9   10 ar
  18    9   11 ar
  19   11   12 ar
  20   11   37 1
  21   12   13 ar
  22   12   16 1
  23   13   14 ar
  24   13   38 1
  25   14   39 1
  26   16   24 ar
  27   16   25 ar
  28   17   18 ar
  29   17   22 ar
  30   18   19 ar
  31   18   40 1
  32   19   20 ar
  33   19   41 1
  34   20   21 ar
  35   20   23 1
  36   21   22 ar
  37   21   42 1
  38   22   43 1
  39   23   29 1
  40   23   30 1
  41   23   32 1
  42   24   28 ar
  43   24   44 1
  44   25   26 ar
  45   25   45 1
  46   26   27 ar
  47   27   28 ar
  48   27   31 1
  49   28   46 1
  50   29   47 1
  51   29   48 1
  52   29   49 1
  53   30   50 1
  54   30   51 1
  55   30   52 1
  56   31   53 1
  57   31   54 1
  58   32   33 3

#	End of record

