#	Name: ASD03430275
#	Creating user name:	WinNT
#	Creation time:	15. 06. 2019 20:40

#	Modifying user name:	WinNT
#	Modification time:	15. 06. 2019 20:40

#	Program:	/corina/corina34_cracker 3.40 0067  02.08.2006

@<TRIPOS>MOLECULE
ASD03430275
  52   57    0    0    0
SMALL
NO_CHARGES


@<TRIPOS>ATOM
   1 C1            -0.0167     1.3806     0.0096 C.ar    
   2 C2             0.0021    -0.0041     0.0020 C.ar    
   3 C3             1.2037    -0.6810    -0.0148 C.ar    
   4 C4             2.4094     0.0138    -0.0129 C.ar    
   5 C5             2.3873     1.4052    -0.0087 C.ar    
   6 C6             1.1838     2.0871     0.0020 C.ar    
   7 O7             3.4721    -0.8411    -0.0032 O.3     
   8 C8             1.5522    -2.1450    -0.0516 C.3     
   9 C9             3.0375    -2.1439    -0.4382 C.3     
  10 C10            0.4242    -3.8584     1.0032 C.ar    
  11 C11            1.3170    -2.8220     1.2658 C.ar    
  12 C12            0.7169    -2.9026    -1.0434 C.2     
  13 N13            0.0930    -3.8783    -0.3538 N.am    
  14 O14            0.6223    -2.6801    -2.2319 O.2     
  15 C15            1.7870    -2.6092     2.5422 C.ar    
  16 C16            1.3730    -3.4274     3.5788 C.ar    
  17 C17            0.4865    -4.4587     3.3297 C.ar    
  18 C18            0.0123    -4.6759     2.0523 C.ar    
  19 C19           -0.4695     3.5260     0.4334 C.3     
  20 O20            0.9019     3.4233     0.0073 O.3     
  21 C21           -0.8253    -4.8471    -0.9572 C.3     
  22 N22           -2.1948    -4.3176    -0.9120 N.3     
  23 C23           -3.0239    -4.9104    -1.9708 C.3     
  24 C24           -4.4589    -4.3945    -1.8403 C.3     
  25 N25           -4.4599    -2.9279    -1.9338 N.3     
  26 C26           -3.6308    -2.3351    -0.8750 C.3     
  27 C27           -2.1958    -2.8510    -1.0055 C.3     
  28 C28           -5.8294    -2.3984    -1.8886 C.3     
  29 O29           -1.0497     2.2736     0.0188 O.3     
  30 H30           -0.9266    -0.5553     0.0096 H       
  31 H31            3.3160     1.9564    -0.0140 H       
  32 H32            3.1570    -2.2519    -1.5162 H       
  33 H33            3.5763    -2.9288     0.0926 H       
  34 H34            2.4796    -1.8033     2.7347 H       
  35 H35            1.7420    -3.2609     4.5800 H       
  36 H36            0.1634    -5.0970     4.1388 H       
  37 H37           -0.6804    -5.4831     1.8655 H       
  38 H38           -0.5267     3.6385     1.5161 H       
  39 H39           -0.9644     4.3590    -0.0659 H       
  40 H40           -0.5379    -5.0233    -1.9938 H       
  41 H41           -0.7799    -5.7847    -0.4032 H       
  42 H42           -2.6240    -4.6306    -2.9454 H       
  43 H43           -3.0174    -5.9960    -1.8728 H       
  44 H44           -5.0691    -4.8104    -2.6421 H       
  45 H45           -4.8682    -4.6978    -0.8767 H       
  46 H46           -3.6373    -1.2496    -0.9730 H       
  47 H47           -4.0307    -2.6150     0.0996 H       
  48 H48           -1.5856    -2.4352    -0.2037 H       
  49 H49           -1.7865    -2.5478    -1.9691 H       
  50 H50           -6.3005    -2.6891    -0.9496 H       
  51 H51           -5.8010    -1.3111    -1.9595 H       
  52 H52           -6.4027    -2.8021    -2.7231 H       
@<TRIPOS>BOND
   1    1    2 ar
   2    1    6 ar
   3    1   29 1
   4    2    3 ar
   5    2   30 1
   6    3    4 ar
   7    3    8 1
   8    4    5 ar
   9    4    7 1
  10    5    6 ar
  11    5   31 1
  12    6   20 1
  13    7    9 1
  14    8    9 1
  15    8   11 1
  16    8   12 1
  17    9   32 1
  18    9   33 1
  19   10   11 ar
  20   10   13 1
  21   10   18 ar
  22   11   15 ar
  23   12   13 am
  24   12   14 2
  25   13   21 1
  26   15   16 ar
  27   15   34 1
  28   16   17 ar
  29   16   35 1
  30   17   18 ar
  31   17   36 1
  32   18   37 1
  33   19   20 1
  34   19   29 1
  35   19   38 1
  36   19   39 1
  37   21   22 1
  38   21   40 1
  39   21   41 1
  40   22   23 1
  41   22   27 1
  42   23   24 1
  43   23   42 1
  44   23   43 1
  45   24   25 1
  46   24   44 1
  47   24   45 1
  48   25   26 1
  49   25   28 1
  50   26   27 1
  51   26   46 1
  52   26   47 1
  53   27   48 1
  54   27   49 1
  55   28   50 1
  56   28   51 1
  57   28   52 1

#	End of record

