#	Name: ASD01418009
#	Creating user name:	WinNT
#	Creation time:	15. 06. 2019 19:20

#	Modifying user name:	WinNT
#	Modification time:	15. 06. 2019 19:20

#	Program:	/corina/corina34_cracker 3.40 0067  02.08.2006

@<TRIPOS>MOLECULE
ASD01418009
  45   47    0    0    0
SMALL
NO_CHARGES


@<TRIPOS>ATOM
   1 S1            -0.3606     1.9912    -0.9451 S.3     
   2 C2            -0.4448     0.2230    -1.0399 C.2     
   3 N3             0.7343    -0.2607    -0.6433 N.am    
   4 C4             1.7151     0.5435    -0.2690 C.2     
   5 C5             1.3606     2.0127    -0.3395 C.3     
   6 S6            -1.7952    -0.6983    -1.5484 S.2     
   7 O7             2.7983     0.1406     0.0975 O.2     
   8 N8             0.9366    -1.6469    -0.6228 N.am    
   9 S9             1.5317    -2.4167    -1.9628 S.o2    
  10 O10            1.7636    -3.7656    -1.5807 O.2     
  11 O11            0.6868    -2.0498    -3.0448 O.2     
  12 C12            3.1123    -1.7182    -2.3067 C.ar    
  13 C13            4.2481    -2.2660    -1.7404 C.ar    
  14 C14            5.4882    -1.7179    -2.0101 C.ar    
  15 C15            5.5924    -0.6223    -2.8466 C.ar    
  16 C16            4.4567    -0.0751    -3.4137 C.ar    
  17 C17            3.2171    -0.6258    -3.1473 C.ar    
  18 C18            2.2727     2.7426    -1.3275 C.3     
  19 C19            1.8967     4.2012    -1.3750 C.2     
  20 C20            2.5433     5.0774    -0.6190 C.2     
  21 C21            2.0703     6.4755    -0.5390 C.ar    
  22 C22            0.7036     6.7553    -0.5641 C.ar    
  23 C23            0.2686     8.0625    -0.4891 C.ar    
  24 C24            1.1843     9.0947    -0.3895 C.ar    
  25 C25            2.5408     8.8240    -0.3645 C.ar    
  26 C26            2.9885     7.5207    -0.4321 C.ar    
  27 C27            0.7856     4.6637    -2.2820 C.3     
  28 H28            1.4159     2.4704     0.6482 H       
  29 H29            0.7280    -2.1557     0.1763 H       
  30 H30            4.1666    -3.1219    -1.0868 H       
  31 H31            6.3755    -2.1455    -1.5671 H       
  32 H32            6.5612    -0.1937    -3.0568 H       
  33 H33            4.5382     0.7811    -4.0669 H       
  34 H34            2.3302    -0.2005    -3.5933 H       
  35 H35            3.3094     2.6450    -1.0052 H       
  36 H36            2.1578     2.3053    -2.3193 H       
  37 H37            3.4157     4.7696    -0.0617 H       
  38 H38           -0.0123     5.9504    -0.6426 H       
  39 H39           -0.7890     8.2805    -0.5085 H       
  40 H40            0.8387    10.1163    -0.3314 H       
  41 H41            3.2506     9.6343    -0.2869 H       
  42 H42            4.0476     7.3103    -0.4076 H       
  43 H43           -0.1595     4.6412    -1.7394 H       
  44 H44            0.9888     5.6812    -2.6158 H       
  45 H45            0.7238     4.0031    -3.1468 H       
@<TRIPOS>BOND
   1    1    2 1
   2    1    5 1
   3    2    3 am
   4    2    6 2
   5    3    4 am
   6    3    8 1
   7    4    5 1
   8    4    7 2
   9    5   18 1
  10    5   28 1
  11    8    9 am
  12    8   29 1
  13    9   10 2
  14    9   11 2
  15    9   12 1
  16   12   13 ar
  17   12   17 ar
  18   13   14 ar
  19   13   30 1
  20   14   15 ar
  21   14   31 1
  22   15   16 ar
  23   15   32 1
  24   16   17 ar
  25   16   33 1
  26   17   34 1
  27   18   19 1
  28   18   35 1
  29   18   36 1
  30   19   20 2
  31   19   27 1
  32   20   21 1
  33   20   37 1
  34   21   22 ar
  35   21   26 ar
  36   22   23 ar
  37   22   38 1
  38   23   24 ar
  39   23   39 1
  40   24   25 ar
  41   24   40 1
  42   25   26 ar
  43   25   41 1
  44   26   42 1
  45   27   43 1
  46   27   44 1
  47   27   45 1

#	End of record

