#	Name: ASD03430425
#	Creating user name:	WinNT
#	Creation time:	15. 06. 2019 20:41

#	Modifying user name:	WinNT
#	Modification time:	15. 06. 2019 20:41

#	Program:	/corina/corina34_cracker 3.40 0067  02.08.2006

@<TRIPOS>MOLECULE
ASD03430425
  22   23    0    0    0
SMALL
NO_CHARGES


@<TRIPOS>ATOM
   1 O1            -0.0173     1.4257     0.0099 O.3     
   2 C2             0.0021    -0.0041     0.0020 C.3     
   3 C3             0.9965    -0.5031     1.0193 C.2     
   4 N4             2.0983     0.2285     1.2940 N.am    
   5 C5             2.2742     1.4622     0.6469 C.ar    
   6 C6             1.1888     2.0538     0.0017 C.ar    
   7 C7             3.5083     2.0899     0.6458 C.ar    
   8 C8             3.6627     3.3053     0.0043 C.ar    
   9 C9             2.5842     3.8962    -0.6370 C.ar    
  10 C10            1.3460     3.2694    -0.6393 C.ar    
  11 O11            0.8078    -1.5572     1.5890 O.2     
  12 C12            3.0944    -0.2578     2.2519 C.3     
  13 O13            2.7404     5.0918    -1.2652 O.3     
  14 H14           -0.9901    -0.3817     0.2490 H       
  15 H15            0.2880    -0.3576    -0.9886 H       
  16 H16            4.3489     1.6313     1.1454 H       
  17 H17            4.6250     3.7956     0.0030 H       
  18 H18            0.5069     3.7302    -1.1392 H       
  19 H19            2.7803    -1.2256     2.6429 H       
  20 H20            4.0576    -0.3629     1.7526 H       
  21 H21            3.1864     0.4533     3.0729 H       
  22 H22            2.9994     5.0173    -2.1938 H       
@<TRIPOS>BOND
   1    1    2 1
   2    1    6 1
   3    2    3 1
   4    2   14 1
   5    2   15 1
   6    3    4 am
   7    3   11 2
   8    4    5 1
   9    4   12 1
  10    5    6 ar
  11    5    7 ar
  12    6   10 ar
  13    7    8 ar
  14    7   16 1
  15    8    9 ar
  16    8   17 1
  17    9   10 ar
  18    9   13 1
  19   10   18 1
  20   12   19 1
  21   12   20 1
  22   12   21 1
  23   13   22 1

#	End of record

