#	Name: ASD01328013
#	Creating user name:	WinNT
#	Creation time:	15. 06. 2019 19:16

#	Modifying user name:	WinNT
#	Modification time:	15. 06. 2019 19:16

#	Program:	/corina/corina34_cracker 3.40 0067  02.08.2006

@<TRIPOS>MOLECULE
ASD01328013
  43   44    0    0    0
SMALL
NO_CHARGES


@<TRIPOS>ATOM
   1 N1             0.0711     1.0988     0.1295 N.am    
   2 C2             1.3890     1.7384     0.1330 C.3     
   3 C3             1.4931     2.6998    -1.0539 C.3     
   4 O4             1.3779     1.9658    -2.2745 O.3     
   5 C5             2.8501     3.4090    -1.0091 C.3     
   6 O6             2.9268     4.3619    -2.0712 O.3     
   7 C7             2.9939     4.1280     0.3358 C.3     
   8 O8             4.2859     4.7330     0.4181 O.3     
   9 C9             2.8319     3.1114     1.4690 C.3     
  10 O10            1.5623     2.4663     1.3505 O.3     
  11 C11            2.9144     3.8317     2.8163 C.3     
  12 O12            2.8801     2.8706     3.8732 O.3     
  13 C13           -0.0584    -0.1801     0.5348 C.2     
  14 S14            1.3173    -1.0570     1.0537 S.2     
  15 N15           -2.3967    -0.0509     0.1069 N.2     
  16 N16           -1.2709    -0.7685     0.5316 N.am    
  17 C17           -3.5415    -0.6506    -0.0125 C.2     
  18 C18           -3.5917    -2.1109    -0.2091 C.ar    
  19 C19           -2.4192    -2.8229    -0.4753 C.ar    
  20 C20           -2.4710    -4.1878    -0.6583 C.ar    
  21 C21           -3.6861    -4.8557    -0.5786 C.ar    
  22 C22           -4.8541    -4.1522    -0.3143 C.ar    
  23 C23           -4.8111    -2.7879    -0.1241 C.ar    
  24 O24           -3.7325    -6.2013    -0.7602 O.3     
  25 H25           -0.7090     1.5969    -0.1608 H       
  26 H26            2.1636     0.9758     0.0520 H       
  27 H27            0.6932     3.4380    -0.9959 H       
  28 H28            0.5431     1.4869    -2.3682 H       
  29 H29            3.6487     2.6754    -1.1190 H       
  30 H30            2.8362     3.9760    -2.9532 H       
  31 H31            2.2257     4.8964     0.4220 H       
  32 H32            4.4593     5.3858    -0.2739 H       
  33 H33            3.6253     2.3668     1.4055 H       
  34 H34            3.8447     4.3972     2.8696 H       
  35 H35            2.0691     4.5125     2.9167 H       
  36 H36            2.9287     3.2572     4.7582 H       
  37 H37           -1.3641    -1.6889     0.8233 H       
  38 H38           -4.4573    -0.0799     0.0321 H       
  39 H39           -1.4739    -2.3043    -0.5378 H       
  40 H40           -1.5653    -4.7389    -0.8644 H       
  41 H41           -5.7968    -4.6756    -0.2535 H       
  42 H42           -5.7191    -2.2423     0.0862 H       
  43 H43           -3.6225    -6.7120     0.0535 H       
@<TRIPOS>BOND
   1    1   13 am
   2    1    2 1
   3    1   25 1
   4    2    3 1
   5    2   10 1
   6    2   26 1
   7    3    4 1
   8    3    5 1
   9    3   27 1
  10    4   28 1
  11    5    6 1
  12    5    7 1
  13    5   29 1
  14    6   30 1
  15    7    8 1
  16    7    9 1
  17    7   31 1
  18    8   32 1
  19    9   10 1
  20    9   11 1
  21    9   33 1
  22   11   12 1
  23   11   34 1
  24   11   35 1
  25   12   36 1
  26   13   14 2
  27   13   16 am
  28   15   16 1
  29   15   17 2
  30   16   37 1
  31   17   18 1
  32   17   38 1
  33   18   19 ar
  34   18   23 ar
  35   19   20 ar
  36   19   39 1
  37   20   21 ar
  38   20   40 1
  39   21   22 ar
  40   21   24 1
  41   22   23 ar
  42   22   41 1
  43   23   42 1
  44   24   43 1

#	End of record

