#	Name: ASD02448172
#	Creating user name:	WinNT
#	Creation time:	15. 06. 2019 20:21

#	Modifying user name:	WinNT
#	Modification time:	15. 06. 2019 20:21

#	Program:	/corina/corina34_cracker 3.40 0067  02.08.2006

@<TRIPOS>MOLECULE
ASD02448172
  83   89    0    0    0
SMALL
NO_CHARGES


@<TRIPOS>ATOM
   1 C1             3.5339    -7.4367    -1.5372 C.ar    
   2 C2             2.9799    -6.4070    -0.8033 C.ar    
   3 C3             2.3289    -5.3654    -1.4502 C.ar    
   4 C4             2.2343    -5.3589    -2.8352 C.ar    
   5 C5             2.7880    -6.3882    -3.5699 C.ar    
   6 C6             3.4399    -7.4304    -2.9230 C.ar    
   7 N7             4.0012    -8.4728    -3.6667 N.am    
   8 C8             5.1112    -9.3566    -3.2870 C.3     
   9 C9             5.4103   -10.3475    -4.3653 C.2     
  10 N10            4.6303   -10.2485    -5.4510 N.am    
  11 S11            3.5589    -9.0025    -5.1856 S.o2    
  12 O12            6.2903   -11.1761    -4.2659 O.2     
  13 O13            2.2646    -9.5787    -5.0762 O.2     
  14 O14            3.8900    -7.9636    -6.0968 O.2     
  15 N15            1.7658    -4.3187    -0.7037 N.pl3   
  16 C16            0.8447    -4.4428     0.3015 C.2     
  17 C17            2.0380    -2.9946    -0.8404 C.2     
  18 N18            1.3300    -2.3267     0.0273 N.2     
  19 C19            0.5826    -3.1867     0.7484 C.2     
  20 C20           -0.3589    -2.8255     1.8366 C.ar    
  21 C21           -0.5329    -1.4892     2.1967 C.ar    
  22 C22           -1.0766    -3.8194     2.4986 C.ar    
  23 C23           -1.9513    -3.4784     3.5104 C.ar    
  24 C24           -2.1166    -2.1515     3.8683 C.ar    
  25 C25           -1.4106    -1.1589     3.2103 C.ar    
  26 Cl26          -3.2189    -1.7300     5.1414 Cl      
  27 Cl27           0.3524    -0.2439     1.3725 Cl      
  28 C28            4.3390    -2.1869    -1.1706 C.ar    
  29 C29            5.2540    -3.2232    -1.1240 C.ar    
  30 C30            6.4826    -3.0360    -0.5237 C.ar    
  31 C31            6.8007    -1.7999     0.0356 C.ar    
  32 C32            5.8752    -0.7592    -0.0147 C.ar    
  33 C33            4.6494    -0.9579    -0.6170 C.ar    
  34 C34            8.1194    -1.5927     0.6826 C.ar    
  35 C35            3.0014    -2.3958    -1.8325 C.3     
  36 N36            9.0000    -2.5834     0.7308 N.ar    
  37 C37            8.4407    -0.3508     1.2387 C.ar    
  38 C38            9.6835    -0.2071     1.8313 C.ar    
  39 C39           10.5372    -1.3083     1.8370 C.ar    
  40 N40           10.1515    -2.4463     1.2809 N.ar    
  41 O41           11.7650    -1.2127     2.4064 O.3     
  42 C42           12.5871    -2.3811     2.3758 C.3     
  43 C43           13.9227    -2.0830     3.0600 C.3     
  44 C44           14.8029    -3.3341     3.0273 C.3     
  45 C45           16.1828    -3.0019     3.5988 C.3     
  46 C46           17.0630    -4.2529     3.5660 C.3     
  47 C47           16.4147    -5.3548     4.4066 C.3     
  48 C48           15.0348    -5.6870     3.8352 C.3     
  49 C49           14.1546    -4.4359     3.8679 C.3     
  50 H50            4.0442    -8.2447    -1.0341 H       
  51 H51            3.0527    -6.4120     0.2742 H       
  52 H52            1.7272    -4.5488    -3.3380 H       
  53 H53            2.7141    -6.3833    -4.6473 H       
  54 H54            5.9997    -8.7535    -3.0998 H       
  55 H55            4.8460    -9.8909    -2.3747 H       
  56 H56            4.6793   -10.8036    -6.2450 H       
  57 H57            0.4105    -5.3612     0.6681 H       
  58 H58           -0.9489    -4.8551     2.2202 H       
  59 H59           -2.5081    -4.2484     4.0236 H       
  60 H60           -1.5431    -0.1251     3.4933 H       
  61 H61            5.0064    -4.1808    -1.5578 H       
  62 H62            7.1959    -3.8461    -0.4872 H       
  63 H63            6.1164     0.2007     0.4176 H       
  64 H64            3.9314    -0.1521    -0.6566 H       
  65 H65            3.1169    -3.0714    -2.6800 H       
  66 H66            2.6151    -1.4381    -2.1814 H       
  67 H67            7.7409     0.4712     1.2067 H       
  68 H68            9.9827     0.7307     2.2756 H       
  69 H69           12.0836    -3.1934     2.9001 H       
  70 H70           12.7661    -2.6725     1.3409 H       
  71 H71           14.4262    -1.2708     2.5358 H       
  72 H72           13.7437    -1.7917     4.0950 H       
  73 H73           14.9088    -3.6770     1.9981 H       
  74 H74           16.6447    -2.2169     2.9999 H       
  75 H75           16.0769    -2.6590     4.6280 H       
  76 H76           17.1689    -4.5959     2.5368 H       
  77 H77           18.0460    -4.0163     3.9731 H       
  78 H78           17.0417    -6.2461     4.3833 H       
  79 H79           16.3088    -5.0119     5.4358 H       
  80 H80           15.1407    -6.0299     2.8059 H       
  81 H81           14.5729    -6.4719     4.4340 H       
  82 H82           14.0487    -4.0930     4.8971 H       
  83 H83           13.1716    -4.6726     3.4608 H       
@<TRIPOS>BOND
   1    1    2 ar
   2    1    6 ar
   3    1   50 1
   4    2    3 ar
   5    2   51 1
   6    3    4 ar
   7    3   15 1
   8    4    5 ar
   9    4   52 1
  10    5    6 ar
  11    5   53 1
  12    6    7 1
  13    7    8 1
  14    7   11 am
  15    8    9 1
  16    8   54 1
  17    8   55 1
  18    9   10 am
  19    9   12 2
  20   10   11 am
  21   10   56 1
  22   11   13 2
  23   11   14 2
  24   15   16 1
  25   15   17 1
  26   16   19 2
  27   16   57 1
  28   17   18 2
  29   17   35 1
  30   18   19 1
  31   19   20 1
  32   20   21 ar
  33   20   22 ar
  34   21   27 1
  35   21   25 ar
  36   22   23 ar
  37   22   58 1
  38   23   24 ar
  39   23   59 1
  40   24   25 ar
  41   24   26 1
  42   25   60 1
  43   28   29 ar
  44   28   33 ar
  45   28   35 1
  46   29   30 ar
  47   29   61 1
  48   30   31 ar
  49   30   62 1
  50   31   32 ar
  51   31   34 1
  52   32   33 ar
  53   32   63 1
  54   33   64 1
  55   34   36 ar
  56   34   37 ar
  57   35   65 1
  58   35   66 1
  59   36   40 ar
  60   37   38 ar
  61   37   67 1
  62   38   39 ar
  63   38   68 1
  64   39   40 ar
  65   39   41 1
  66   41   42 1
  67   42   43 1
  68   42   69 1
  69   42   70 1
  70   43   44 1
  71   43   71 1
  72   43   72 1
  73   44   45 1
  74   44   49 1
  75   44   73 1
  76   45   46 1
  77   45   74 1
  78   45   75 1
  79   46   47 1
  80   46   76 1
  81   46   77 1
  82   47   48 1
  83   47   78 1
  84   47   79 1
  85   48   49 1
  86   48   80 1
  87   48   81 1
  88   49   82 1
  89   49   83 1

#	End of record

