#	Name: ASD00960049
#	Creating user name:	WinNT
#	Creation time:	15. 06. 2019 18:53

#	Modifying user name:	WinNT
#	Modification time:	15. 06. 2019 18:53

#	Program:	/corina/corina34_cracker 3.40 0067  02.08.2006

@<TRIPOS>MOLECULE
ASD00960049
  39   41    0    0    0
SMALL
NO_CHARGES


@<TRIPOS>ATOM
   1 C1            -0.2918     1.4461    -0.3118 C.3     
   2 C2            -0.2375    -0.0923    -0.1794 C.3     
   3 C3            -0.5958    -0.3546     1.3002 C.3     
   4 O4            -1.3510     0.8068     1.7084 O.3     
   5 C5            -0.6764     1.9314     1.1034 C.3     
   6 C6            -1.6185     3.1338     1.0165 C.3     
   7 C7            -1.4381    -1.5981     1.4235 C.2     
   8 C8            -0.9591    -2.8585     1.5056 C.2     
   9 N9            -2.7941    -1.6231     1.4751 N.pl3   
  10 C10           -3.2103    -2.9241     1.5871 C.2     
  11 C11           -2.0660    -3.7327     1.6089 C.2     
  12 N12           -3.7683    -0.6145     1.4363 N.2     
  13 C13           -5.0355    -0.9254     1.5063 C.2     
  14 N14           -5.4503    -2.1836     1.6150 N.2     
  15 C15           -4.5944    -3.1911     1.6577 C.2     
  16 O16           -1.9276     3.5929     2.3340 O.3     
  17 N17           -5.0501    -4.4904     1.7707 N.pl3   
  18 C18           -2.0246    -5.1933     1.7172 C.2     
  19 O19           -2.8234    -5.7733     2.4278 O.2     
  20 O20           -1.1006    -5.8947     1.0288 O.3     
  21 C21           -1.2660    -0.7466    -1.1041 C.3     
  22 O22            0.9869     1.9618    -0.6877 O.3     
  23 *23            0.9260     3.1449    -1.4522 Du      
  24 O24            1.0755    -0.5741    -0.4725 O.3     
  25 *25            1.5093    -0.2945    -1.7847 Du      
  26 H26           -1.0496     1.7405    -1.0379 H       
  27 H27            0.3101    -0.4479     1.8992 H       
  28 H28            0.2171     2.1886     1.6722 H       
  29 H29           -1.1350     3.9344     0.4568 H       
  30 H30           -2.5374     2.8395     0.5094 H       
  31 H31            0.0816    -3.1467     1.4940 H       
  32 H32           -5.7700    -0.1342     1.4750 H       
  33 H33           -2.5220     4.3553     2.3554 H       
  34 H34           -5.9446    -4.6634     2.1036 H       
  35 H35           -4.4756    -5.2297     1.5170 H       
  36 H36           -1.1125    -6.8561     1.1321 H       
  37 H37           -1.0368    -0.4935    -2.1393 H       
  38 H38           -1.2311    -1.8288    -0.9784 H       
  39 H39           -2.2627    -0.3836    -0.8535 H       
@<TRIPOS>BOND
   1    1    2 1
   2    1   22 1
   3    1    5 1
   4    1   26 1
   5    2   21 1
   6    2   24 1
   7    2    3 1
   8    3    4 1
   9    3    7 1
  10    3   27 1
  11    4    5 1
  12    5    6 1
  13    5   28 1
  14    6   16 1
  15    6   29 1
  16    6   30 1
  17    7    8 2
  18    7    9 1
  19    8   11 1
  20    8   31 1
  21    9   10 1
  22    9   12 1
  23   10   11 2
  24   10   15 1
  25   11   18 1
  26   12   13 2
  27   13   14 1
  28   13   32 1
  29   14   15 2
  30   15   17 1
  31   16   33 1
  32   17   34 1
  33   17   35 1
  34   18   19 2
  35   18   20 1
  36   20   36 1
  37   21   37 1
  38   21   38 1
  39   21   39 1
  40   22   23 1
  41   24   25 1

#	End of record

