#	Name: ASD01913287
#	Creating user name:	WinNT
#	Creation time:	15. 06. 2019 20:01

#	Modifying user name:	WinNT
#	Modification time:	15. 06. 2019 20:01

#	Program:	/corina/corina34_cracker 3.40 0067  02.08.2006

@<TRIPOS>MOLECULE
ASD01913287
  44   46    0    0    0
SMALL
NO_CHARGES


@<TRIPOS>ATOM
   1 C1            -0.0169     1.3971     0.0097 C.ar    
   2 C2             0.0021    -0.0041     0.0020 C.ar    
   3 C3             1.2454    -0.6502    -0.0133 C.ar    
   4 N4             2.3460     0.0795    -0.0199 N.ar    
   5 C5             2.2851     1.4038    -0.0122 C.ar    
   6 N6             1.1293     2.0528     0.0023 N.ar    
   7 N7             3.4624     2.1297    -0.0191 N.pl3   
   8 C8             3.4200     3.5941    -0.0108 C.3     
   9 C9            -1.2168    -0.7557     0.0101 C.1     
  10 C10           -2.2161    -1.3719     0.0167 C.1     
  11 C11           -3.4349    -2.1235     0.0248 C.ar    
  12 C12           -3.3984    -3.5204     0.0169 C.ar    
  13 C13           -4.5764    -4.2376     0.0252 C.ar    
  14 C14           -5.7924    -3.5773     0.0409 C.ar    
  15 C15           -5.8364    -2.1942     0.0487 C.ar    
  16 C16           -4.6665    -1.4637     0.0464 C.ar    
  17 C17            3.2926     4.0949     1.4312 C.3     
  18 C18            3.3284     5.6254     1.4366 C.3     
  19 O19            4.5414     6.0743     0.8290 O.3     
  20 C20            4.6930     5.6760    -0.5349 C.3     
  21 C21            4.7121     4.1475    -0.6196 C.3     
  22 C22            3.5226     6.2181    -1.3579 C.3     
  23 C23            6.0065     6.2340    -1.0865 C.3     
  24 H24           -0.9548     1.9326     0.0171 H       
  25 H25            1.3027    -1.7287    -0.0193 H       
  26 H26            4.3161     1.6693    -0.0294 H       
  27 H27            2.5648     3.9374    -0.5929 H       
  28 H28           -2.4501    -4.0371     0.0040 H       
  29 H29           -4.5498    -5.3173     0.0192 H       
  30 H30           -6.7117    -4.1441     0.0466 H       
  31 H31           -6.7890    -1.6856     0.0606 H       
  32 H32           -4.7023    -0.3843     0.0525 H       
  33 H33            2.3487     3.7511     1.8541 H       
  34 H34            4.1210     3.7091     2.0253 H       
  35 H35            2.4767     6.0109     0.8761 H       
  36 H36            3.2811     5.9864     2.4640 H       
  37 H37            5.5691     3.7628    -0.0669 H       
  38 H38            4.7832     3.8414    -1.6633 H       
  39 H39            3.5086     7.3063    -1.2967 H       
  40 H40            3.6384     5.9141    -2.3982 H       
  41 H41            2.5870     5.8200    -0.9651 H       
  42 H42            6.8402     5.8472    -0.5003 H       
  43 H43            6.1220     5.9301    -2.1268 H       
  44 H44            5.9932     7.3222    -1.0252 H       
@<TRIPOS>BOND
   1    1    2 ar
   2    1    6 ar
   3    1   24 1
   4    2    3 ar
   5    2    9 1
   6    3    4 ar
   7    3   25 1
   8    4    5 ar
   9    5    6 ar
  10    5    7 1
  11    7    8 1
  12    7   26 1
  13    8   17 1
  14    8   21 1
  15    8   27 1
  16    9   10 3
  17   10   11 1
  18   11   12 ar
  19   11   16 ar
  20   12   13 ar
  21   12   28 1
  22   13   14 ar
  23   13   29 1
  24   14   15 ar
  25   14   30 1
  26   15   16 ar
  27   15   31 1
  28   16   32 1
  29   17   18 1
  30   17   33 1
  31   17   34 1
  32   18   19 1
  33   18   35 1
  34   18   36 1
  35   19   20 1
  36   20   21 1
  37   20   22 1
  38   20   23 1
  39   21   37 1
  40   21   38 1
  41   22   39 1
  42   22   40 1
  43   22   41 1
  44   23   42 1
  45   23   43 1
  46   23   44 1

#	End of record

