#	Name: ASD01420034
#	Creating user name:	WinNT
#	Creation time:	15. 06. 2019 19:20

#	Modifying user name:	WinNT
#	Modification time:	15. 06. 2019 19:20

#	Program:	/corina/corina34_cracker 3.40 0067  02.08.2006

@<TRIPOS>MOLECULE
ASD01420034
  53   55    0    0    0
SMALL
NO_CHARGES


@<TRIPOS>ATOM
   1 C1            -0.0180     1.4763     0.0102 C.3     
   2 N2             0.0021    -0.0041     0.0020 N.3     
   3 C3             1.2743    -0.3381    -0.6776 C.3     
   4 C4             2.1986     0.8277    -0.4096 C.ar    
   5 C5             3.5760     0.9560    -0.5065 C.ar    
   6 C6             4.1819     2.1641    -0.1939 C.ar    
   7 C7             3.4120     3.2367     0.2134 C.ar    
   8 C8             2.0390     3.1069     0.3094 C.ar    
   9 C9             1.4319     1.9046    -0.0014 C.ar    
  10 O10            4.3312    -0.1005    -0.9067 O.3     
  11 C11            5.7435     0.1037    -0.9837 C.3     
  12 C12            6.4209    -1.1870    -1.4484 C.3     
  13 O13            6.0090    -1.4871    -2.7834 O.3     
  14 C14            6.5875    -2.6804    -3.3158 C.3     
  15 C15            6.0789    -2.9016    -4.7417 C.3     
  16 O16            6.5472    -1.8462    -5.5836 O.3     
  17 C17            6.1261    -1.9580    -6.9446 C.3     
  18 C18           -1.1472    -0.5421    -0.7381 C.3     
  19 C19           -0.9771    -0.2553    -2.2077 C.ar    
  20 C20           -0.3235    -1.1657    -3.0175 C.ar    
  21 C21           -0.1664    -0.9051    -4.3650 C.ar    
  22 C22           -0.6650     0.2712    -4.9056 C.ar    
  23 C23           -1.3204     1.1831    -4.0910 C.ar    
  24 C24           -1.4799     0.9152    -2.7451 C.ar    
  25 O25           -0.5113     0.5301    -6.2308 O.3     
  26 C26           -1.0499     1.7606    -6.7182 C.3     
  27 H27           -0.5283     1.8508    -0.8772 H       
  28 H28           -0.5112     1.8412     0.9111 H       
  29 H29            1.6938    -1.2544    -0.2623 H       
  30 H30            1.1105    -0.4501    -1.7494 H       
  31 H31            5.2545     2.2660    -0.2684 H       
  32 H32            3.8833     4.1773     0.4572 H       
  33 H33            1.4394     3.9466     0.6283 H       
  34 H34            5.9569     0.9023    -1.6943 H       
  35 H35            6.1247     0.3806    -0.0008 H       
  36 H36            7.5030    -1.0592    -1.4221 H       
  37 H37            6.1355    -2.0054    -0.7875 H       
  38 H38            7.6732    -2.5836    -3.3282 H       
  39 H39            6.3056    -3.5298    -2.6936 H       
  40 H40            6.4492    -3.8562    -5.1156 H       
  41 H41            4.9889    -2.9097    -4.7415 H       
  42 H42            6.4974    -2.8930    -7.3642 H       
  43 H43            5.0371    -1.9465    -6.9901 H       
  44 H44            6.5226    -1.1198    -7.5176 H       
  45 H45           -1.2074    -1.6193    -0.5827 H       
  46 H46           -2.0627    -0.0715    -0.3796 H       
  47 H47            0.0647    -2.0811    -2.5961 H       
  48 H48            0.3445    -1.6164    -4.9970 H       
  49 H49           -1.7094     2.0996    -4.5094 H       
  50 H50           -1.9943     1.6226    -2.1115 H       
  51 H51           -2.1247     1.7834    -6.5381 H       
  52 H52           -0.5769     2.5948    -6.2001 H       
  53 H53           -0.8590     1.8423    -7.7883 H       
@<TRIPOS>BOND
   1    1    2 1
   2    1    9 1
   3    1   27 1
   4    1   28 1
   5    2    3 1
   6    2   18 1
   7    3    4 1
   8    3   29 1
   9    3   30 1
  10    4    5 ar
  11    4    9 ar
  12    5    6 ar
  13    5   10 1
  14    6    7 ar
  15    6   31 1
  16    7    8 ar
  17    7   32 1
  18    8    9 ar
  19    8   33 1
  20   10   11 1
  21   11   12 1
  22   11   34 1
  23   11   35 1
  24   12   13 1
  25   12   36 1
  26   12   37 1
  27   13   14 1
  28   14   15 1
  29   14   38 1
  30   14   39 1
  31   15   16 1
  32   15   40 1
  33   15   41 1
  34   16   17 1
  35   17   42 1
  36   17   43 1
  37   17   44 1
  38   18   19 1
  39   18   45 1
  40   18   46 1
  41   19   20 ar
  42   19   24 ar
  43   20   21 ar
  44   20   47 1
  45   21   22 ar
  46   21   48 1
  47   22   23 ar
  48   22   25 1
  49   23   24 ar
  50   23   49 1
  51   24   50 1
  52   25   26 1
  53   26   51 1
  54   26   52 1
  55   26   53 1

#	End of record

