#	Name: ASD09890101
#	Creating user name:	WinNT
#	Creation time:	15. 06. 2019 21:24

#	Modifying user name:	WinNT
#	Modification time:	15. 06. 2019 21:24

#	Program:	/corina/corina34_cracker 3.40 0067  02.08.2006

@<TRIPOS>MOLECULE
ASD09890101
  56   60    0    0    0
SMALL
NO_CHARGES


@<TRIPOS>ATOM
   1 C1            -0.0176     1.3672     0.0647 C.2     
   2 N2            -0.0056    -0.0001     0.0346 N.pl3   
   3 C3            -1.2997    -0.4350     0.1186 C.2     
   4 N4            -2.0758     0.6195     0.1971 N.2     
   5 N5            -1.2619     1.7594     0.1686 N.2     
   6 S6            -1.8306    -2.1151     0.1200 S.3     
   7 C7            -3.6341    -1.9731     0.2536 C.3     
   8 C8             1.1332    -0.8132    -0.0654 C.ar    
   9 C9             2.0784    -0.8330     0.9561 C.ar    
  10 C10            3.1866    -1.6522     0.8117 C.ar    
  11 C11            3.3163    -2.4167    -0.3325 C.ar    
  12 N12            2.4025    -2.3746    -1.2826 N.ar    
  13 C13            1.3309    -1.6140    -1.1820 C.ar    
  14 C14           -4.2819    -3.3645     0.1435 C.3     
  15 C15           -5.0381    -3.6044     1.4666 C.3     
  16 C16           -5.3144    -2.1805     2.0098 C.3     
  17 C17           -4.0191    -1.4161     1.6397 C.3     
  18 O18            1.0701     2.1752     0.0035 O.3     
  19 C19            0.8650     3.5149    -0.0919 C.ar    
  20 C20           -0.4191     4.0073    -0.2838 C.ar    
  21 C21           -0.6303     5.3666    -0.3810 C.ar    
  22 C22            0.4467     6.2464    -0.2864 C.ar    
  23 C23            1.7346     5.7492    -0.0937 C.ar    
  24 C24            1.9390     4.3892     0.0084 C.ar    
  25 C25            0.2228     7.7091    -0.3911 C.ar    
  26 C26            1.2997     8.5890    -0.2965 C.ar    
  27 C27            1.0884     9.9483    -0.3946 C.ar    
  28 C28           -0.1952    10.4406    -0.5875 C.ar    
  29 C29           -1.2698     9.5667    -0.6821 C.ar    
  30 C30           -1.0642     8.2061    -0.5900 C.ar    
  31 O31           -0.4003    11.7804    -0.6833 O.3     
  32 C32           -1.7461    12.2182    -0.8815 C.3     
  33 H33           -4.0161    -1.3202    -0.5312 H       
  34 H34            1.9514    -0.2247     1.8393 H       
  35 H35            3.9404    -1.6926     1.5840 H       
  36 H36            4.1781    -3.0569    -0.4504 H       
  37 H37            0.6040    -1.6063    -1.9807 H       
  38 H38           -4.9790    -3.3865    -0.6942 H       
  39 H39           -3.5127    -4.1250     0.0098 H       
  40 H40           -5.9746    -4.1303     1.2808 H       
  41 H41           -4.4166    -4.1652     2.1648 H       
  42 H42           -6.1787    -1.7388     1.5138 H       
  43 H43           -5.4561    -2.2001     3.0904 H       
  44 H44           -3.2331    -1.6235     2.3659 H       
  45 H45           -4.2120    -0.3450     1.5803 H       
  46 H46           -1.2531     3.3251    -0.3574 H       
  47 H47           -1.6292     5.7490    -0.5307 H       
  48 H48            2.5710     6.4285    -0.0204 H       
  49 H49            2.9366     4.0034     0.1577 H       
  50 H50            2.2985     8.2067    -0.1461 H       
  51 H51            1.9224    10.6306    -0.3210 H       
  52 H52           -2.2673     9.9527    -0.8318 H       
  53 H53           -1.9005     7.5268    -0.6641 H       
  54 H54           -1.7693    13.3063    -0.9406 H       
  55 H55           -2.1329    11.7956    -1.8088 H       
  56 H56           -2.3628    11.8865    -0.0461 H       
@<TRIPOS>BOND
   1    1    2 1
   2    1   18 1
   3    1    5 2
   4    2    3 1
   5    2    8 1
   6    3    4 2
   7    3    6 1
   8    4    5 1
   9    6    7 1
  10    7   14 1
  11    7   17 1
  12    7   33 1
  13    8    9 ar
  14    8   13 ar
  15    9   10 ar
  16    9   34 1
  17   10   11 ar
  18   10   35 1
  19   11   12 ar
  20   11   36 1
  21   12   13 ar
  22   13   37 1
  23   14   15 1
  24   14   38 1
  25   14   39 1
  26   15   16 1
  27   15   40 1
  28   15   41 1
  29   16   17 1
  30   16   42 1
  31   16   43 1
  32   17   44 1
  33   17   45 1
  34   18   19 1
  35   19   20 ar
  36   19   24 ar
  37   20   21 ar
  38   20   46 1
  39   21   22 ar
  40   21   47 1
  41   22   23 ar
  42   22   25 1
  43   23   24 ar
  44   23   48 1
  45   24   49 1
  46   25   26 ar
  47   25   30 ar
  48   26   27 ar
  49   26   50 1
  50   27   28 ar
  51   27   51 1
  52   28   29 ar
  53   28   31 1
  54   29   30 ar
  55   29   52 1
  56   30   53 1
  57   31   32 1
  58   32   54 1
  59   32   55 1
  60   32   56 1

#	End of record

