#	Name: ASD01140132
#	Creating user name:	WinNT
#	Creation time:	15. 06. 2019 19:00

#	Modifying user name:	WinNT
#	Modification time:	15. 06. 2019 19:00

#	Program:	/corina/corina34_cracker 3.40 0067  02.08.2006

@<TRIPOS>MOLECULE
ASD01140132
  25   26    0    0    0
SMALL
NO_CHARGES


@<TRIPOS>ATOM
   1 C1            -0.0166     1.3758     0.0096 C.ar    
   2 C2             0.0021    -0.0041     0.0020 C.ar    
   3 C3             1.2186    -0.6825    -0.0133 C.ar    
   4 C4             2.4142     0.0378    -0.0209 C.ar    
   5 C5             2.3850     1.4193    -0.0132 C.ar    
   6 C6             1.1718     2.0878     0.0021 C.ar    
   7 C7             1.2434    -2.1660    -0.0210 C.ar    
   8 C8             0.4884    -2.8818     0.9074 C.ar    
   9 C9             0.5091    -4.2633     0.9023 C.ar    
  10 C10            1.2767    -4.9444    -0.0204 C.ar    
  11 C11            2.0380    -4.2389    -0.9556 C.ar    
  12 C12            2.0153    -2.8450    -0.9582 C.ar    
  13 C13            2.8605    -4.9682    -1.9427 C.2     
  14 O14            3.5218    -4.3532    -2.7551 O.2     
  15 O15            2.8771    -6.3152    -1.9419 O.3     
  16 F16            1.1475     3.4386     0.0096 F       
  17 F17            3.5973    -0.6143    -0.0353 F       
  18 H18           -0.9599     1.9018     0.0169 H       
  19 H19           -0.9254    -0.5573     0.0083 H       
  20 H20            3.3089     1.9785    -0.0190 H       
  21 H21           -0.1139    -2.3549     1.6327 H       
  22 H22           -0.0777    -4.8125     1.6238 H       
  23 H23            1.2892    -6.0243    -0.0193 H       
  24 H24            2.6016    -2.2944    -1.6790 H       
  25 H25            3.4303    -6.7479    -2.6066 H       
@<TRIPOS>BOND
   1    1    2 ar
   2    1    6 ar
   3    1   18 1
   4    2    3 ar
   5    2   19 1
   6    3    4 ar
   7    3    7 1
   8    4    5 ar
   9    4   17 1
  10    5    6 ar
  11    5   20 1
  12    6   16 1
  13    7    8 ar
  14    7   12 ar
  15    8    9 ar
  16    8   21 1
  17    9   10 ar
  18    9   22 1
  19   10   11 ar
  20   10   23 1
  21   11   12 ar
  22   11   13 1
  23   12   24 1
  24   13   14 2
  25   13   15 1
  26   15   25 1

#	End of record

