#	Name: ASD00110016
#	Creating user name:	WinNT
#	Creation time:	15. 06. 2019 18:30

#	Modifying user name:	WinNT
#	Modification time:	15. 06. 2019 18:30

#	Program:	/corina/corina34_cracker 3.40 0067  02.08.2006

@<TRIPOS>MOLECULE
ASD00110016
  41   42    0    0    0
SMALL
NO_CHARGES


@<TRIPOS>ATOM
   1 N1            -0.0179     1.4653     0.0101 N.3     
   2 C2             0.0021    -0.0041     0.0020 C.3     
   3 C3             0.7337    -0.4948    -1.2495 C.3     
   4 N4             2.0995     0.0476    -1.2596 N.3     
   5 C5             2.0796     1.5170    -1.2515 C.3     
   6 C6             1.3479     2.0078    -0.0000 C.3     
   7 C7             2.8225    -0.4372    -2.3519 C.ar    
   8 C8             2.3371    -0.2612    -3.6415 C.ar    
   9 C9             3.0547    -0.7414    -4.7193 C.ar    
  10 C10            4.2553    -1.3967    -4.5159 C.ar    
  11 C11            4.7415    -1.5736    -3.2334 C.ar    
  12 C12            4.0315    -1.0913    -2.1515 C.ar    
  13 C13            3.4933     2.0390    -1.2446 C.2     
  14 N14            3.7211     3.3673    -1.2366 N.am    
  15 O15            4.4259     1.2637    -1.2462 O.2     
  16 C16            5.0954     3.8747    -1.2298 C.3     
  17 C17            5.0742     5.4046    -1.2214 C.3     
  18 C18            6.5095     5.9345    -1.2143 C.3     
  19 O19            4.3974     5.8780    -2.3875 O.3     
  20 O20            6.4911     7.3579    -1.0891 O.3     
  21 H21           -0.5551     1.8239    -0.7650 H       
  22 H22            0.5192    -0.3656     0.8908 H       
  23 H23           -1.0204    -0.3816    -0.0030 H       
  24 H24            0.7751    -1.5840    -1.2430 H       
  25 H25            0.2013    -0.1561    -2.1383 H       
  26 H26            1.5625     1.8786    -2.1404 H       
  27 H27            1.3066     3.0970    -0.0066 H       
  28 H28            1.8803     1.6690     0.8887 H       
  29 H29            1.3993     0.2502    -3.8010 H       
  30 H30            2.6777    -0.6053    -5.7222 H       
  31 H31            4.8144    -1.7716    -5.3605 H       
  32 H32            5.6795    -2.0858    -3.0780 H       
  33 H33            4.4139    -1.2258    -1.1505 H       
  34 H34            2.9752     3.9874    -1.2353 H       
  35 H35            5.6117     3.5136    -0.3403 H       
  36 H36            5.6168     3.5235    -2.1202 H       
  37 H37            4.5528     5.7558    -0.3310 H       
  38 H38            7.0521     5.5027    -0.3733 H       
  39 H39            7.0035     5.6581    -2.1458 H       
  40 H40            4.8072     5.6029    -3.2190 H       
  41 H41            7.3691     7.7631    -1.0776 H       
@<TRIPOS>BOND
   1    1    2 1
   2    1    6 1
   3    1   21 1
   4    2    3 1
   5    2   22 1
   6    2   23 1
   7    3    4 1
   8    3   24 1
   9    3   25 1
  10    4    5 1
  11    4    7 1
  12    5    6 1
  13    5   13 1
  14    5   26 1
  15    6   27 1
  16    6   28 1
  17    7    8 ar
  18    7   12 ar
  19    8    9 ar
  20    8   29 1
  21    9   10 ar
  22    9   30 1
  23   10   11 ar
  24   10   31 1
  25   11   12 ar
  26   11   32 1
  27   12   33 1
  28   13   14 am
  29   13   15 2
  30   14   16 1
  31   14   34 1
  32   16   17 1
  33   16   35 1
  34   16   36 1
  35   17   18 1
  36   17   19 1
  37   17   37 1
  38   18   20 1
  39   18   38 1
  40   18   39 1
  41   19   40 1
  42   20   41 1

#	End of record

