#	Name: ASD05430725
#	Creating user name:	WinNT
#	Creation time:	15. 06. 2019 21:00

#	Modifying user name:	WinNT
#	Modification time:	15. 06. 2019 21:00

#	Program:	/corina/corina34_cracker 3.40 0067  02.08.2006

@<TRIPOS>MOLECULE
ASD05430725
  55   59    0    0    0
SMALL
NO_CHARGES


@<TRIPOS>ATOM
   1 C1            -0.0515     1.2205     0.0695 C.2     
   2 C2            -0.0950    -0.1639    -0.1378 C.2     
   3 C3            -1.3440    -0.7977    -0.2800 C.2     
   4 C4            -2.4756    -0.0668    -0.2150 C.2     
   5 N5            -2.4388     1.2814    -0.0139 N.am    
   6 C6            -1.2713     1.9379     0.1338 C.2     
   7 O7            -1.2645     3.1442     0.3126 O.2     
   8 C8            -3.6957     2.0314     0.0480 C.3     
   9 C9            -4.4813     1.8180    -1.2474 C.3     
  10 C10           -4.5133     1.5458     1.2171 C.ar    
  11 C11           -3.8829     1.1143     2.3689 C.ar    
  12 C12           -4.6332     0.6679     3.4437 C.ar    
  13 C13           -6.0150     0.6540     3.3643 C.ar    
  14 C14           -6.6453     1.0863     2.2103 C.ar    
  15 C15           -5.8932     1.5376     1.1388 C.ar    
  16 N16            1.2439     1.5719     0.1720 N.2     
  17 C17            1.9985     0.5071     0.0432 C.2     
  18 N18            1.2051    -0.5946    -0.1512 N.pl3   
  19 C19            3.4755     0.4960     0.0985 C.ar    
  20 C20            4.1763     1.6857     0.3024 C.ar    
  21 C21            5.5581     1.6708     0.3534 C.ar    
  22 C22            6.2477     0.4689     0.2013 C.ar    
  23 C23            5.5496    -0.7141    -0.0016 C.ar    
  24 C24            4.1718    -0.7054    -0.0475 C.ar    
  25 N25            7.6486     0.4546     0.2526 N.pl3   
  26 C26            8.4903     1.2640    -0.4412 C.2     
  27 N27            9.7187     0.9515    -0.1293 N.2     
  28 C28            9.7096    -0.0521     0.7604 C.2     
  29 C29            8.4276    -0.3748     1.0171 C.2     
  30 C30           10.9240    -0.7024     1.3714 C.3     
  31 F31           -7.9939     1.0728     2.1313 F       
  32 F32           -4.0167     0.2458     4.5693 F       
  33 O33            6.2438     2.8279     0.5514 O.3     
  34 C34            5.4726     4.0219     0.6988 C.3     
  35 H35           -1.3958    -1.8644    -0.4407 H       
  36 H36           -3.4304    -0.5594    -0.3250 H       
  37 H37           -3.4798     3.0926     0.1715 H       
  38 H38           -5.4165     2.3761    -1.2013 H       
  39 H39           -3.8899     2.1693    -2.0930 H       
  40 H40           -4.6972     0.7568    -1.3708 H       
  41 H41           -2.8047     1.1250     2.4305 H       
  42 H42           -6.6010     0.3056     4.2020 H       
  43 H43           -6.3847     1.8754     0.2384 H       
  44 H44            1.5080    -1.5077    -0.2750 H       
  45 H45            3.6406     2.6161     0.4198 H       
  46 H46            6.0868    -1.6435    -0.1191 H       
  47 H47            3.6311    -1.6270    -0.2050 H       
  48 H48            8.1930     2.0364    -1.1350 H       
  49 H49            8.0800    -1.1435     1.6914 H       
  50 H50           11.1948    -0.1778     2.2877 H       
  51 H51           10.7012    -1.7443     1.6015 H       
  52 H52           11.7545    -0.6555     0.6669 H       
  53 H53            4.8105     3.9229     1.5590 H       
  54 H54            6.1409     4.8696     0.8503 H       
  55 H55            4.8783     4.1839    -0.2004 H       
@<TRIPOS>BOND
   1    1    2 2
   2    1   16 1
   3    1    6 1
   4    2    3 1
   5    2   18 1
   6    3    4 2
   7    3   35 1
   8    4    5 1
   9    4   36 1
  10    5    6 am
  11    5    8 1
  12    6    7 2
  13    8    9 1
  14    8   10 1
  15    8   37 1
  16    9   38 1
  17    9   39 1
  18    9   40 1
  19   10   11 ar
  20   10   15 ar
  21   11   12 ar
  22   11   41 1
  23   12   13 ar
  24   12   32 1
  25   13   14 ar
  26   13   42 1
  27   14   15 ar
  28   14   31 1
  29   15   43 1
  30   16   17 2
  31   17   18 1
  32   17   19 1
  33   18   44 1
  34   19   20 ar
  35   19   24 ar
  36   20   21 ar
  37   20   45 1
  38   21   22 ar
  39   21   33 1
  40   22   23 ar
  41   22   25 1
  42   23   24 ar
  43   23   46 1
  44   24   47 1
  45   25   26 1
  46   25   29 1
  47   26   27 2
  48   26   48 1
  49   27   28 1
  50   28   29 2
  51   28   30 1
  52   29   49 1
  53   30   50 1
  54   30   51 1
  55   30   52 1
  56   33   34 1
  57   34   53 1
  58   34   54 1
  59   34   55 1

#	End of record

