#	Name: ASD01885437
#	Creating user name:	WinNT
#	Creation time:	15. 06. 2019 19:49

#	Modifying user name:	WinNT
#	Modification time:	15. 06. 2019 19:49

#	Program:	/corina/corina34_cracker 3.40 0067  02.08.2006

@<TRIPOS>MOLECULE
ASD01885437
  38   40    0    0    0
SMALL
NO_CHARGES


@<TRIPOS>ATOM
   1 C1            -0.0388     1.4176     0.0071 C.ar    
   2 C2            -0.0161     0.0213     0.0397 C.ar    
   3 N3            -1.1304    -0.7500     0.0521 N.2     
   4 C4            -2.1917    -0.5667    -0.6472 C.2     
   5 C5            -2.3336     0.6072    -1.5801 C.3     
   6 C6            -2.2857     1.8697    -0.7572 C.2     
   7 N7            -1.2069     2.1687    -0.0337 N.am    
   8 C8             1.1618     2.1205     0.0092 C.ar    
   9 C9             2.3805     1.4403     0.0385 C.ar    
  10 C10            2.3932     0.0392     0.0655 C.ar    
  11 C11            1.2213    -0.6512     0.0659 C.ar    
  12 C12           -3.2991    -1.5300    -0.5343 C.ar    
  13 O13           -3.2378     2.6211    -0.7549 O.2     
  14 C14           -3.1343    -2.7049     0.2073 C.ar    
  15 C15           -4.1722    -3.6086     0.3136 C.ar    
  16 C16           -5.3791    -3.3610    -0.3100 C.ar    
  17 C17           -5.5589    -2.1917    -1.0545 C.ar    
  18 C18           -4.5188    -1.2713    -1.1624 C.ar    
  19 C19           -6.8116    -1.9376    -1.7001 C.1     
  20 N20           -7.8054    -1.7361    -2.2123 N.1     
  21 C21            3.6440     2.1898     0.0405 C.2     
  22 C22            4.8219     1.5284     0.0689 C.2     
  23 C23            6.0417     2.2520     0.0708 C.2     
  24 O24            7.2179     1.5915     0.0991 O.3     
  25 O25            6.0275     3.4681     0.0469 O.2     
  26 H26           -1.5152     0.6060    -2.3001 H       
  27 H27           -3.2867     0.5464    -2.1056 H       
  28 H28           -1.2400     2.9725     0.5082 H       
  29 H29            1.1510     3.2002    -0.0124 H       
  30 H30            3.3333    -0.4922     0.0860 H       
  31 H31            1.2398    -1.7308     0.0870 H       
  32 H32           -2.1930    -2.9053     0.6974 H       
  33 H33           -4.0396    -4.5142     0.8870 H       
  34 H34           -6.1864    -4.0731    -0.2226 H       
  35 H35           -4.6526    -0.3660    -1.7360 H       
  36 H36            3.6313     3.2696     0.0193 H       
  37 H37            4.8345     0.4487     0.0901 H       
  38 H38            7.9935     2.1691     0.0980 H       
@<TRIPOS>BOND
   1    1    2 ar
   2    1    8 ar
   3    1    7 1
   4    2    3 1
   5    2   11 ar
   6    3    4 2
   7    4    5 1
   8    4   12 1
   9    5    6 1
  10    5   26 1
  11    5   27 1
  12    6    7 am
  13    6   13 2
  14    7   28 1
  15    8    9 ar
  16    8   29 1
  17    9   10 ar
  18    9   21 1
  19   10   11 ar
  20   10   30 1
  21   11   31 1
  22   12   14 ar
  23   12   18 ar
  24   14   15 ar
  25   14   32 1
  26   15   16 ar
  27   15   33 1
  28   16   17 ar
  29   16   34 1
  30   17   18 ar
  31   17   19 1
  32   18   35 1
  33   19   20 3
  34   21   22 2
  35   21   36 1
  36   22   23 1
  37   22   37 1
  38   23   24 1
  39   23   25 2
  40   24   38 1

#	End of record

