#	Name: ASD01410733
#	Creating user name:	WinNT
#	Creation time:	15. 06. 2019 19:18

#	Modifying user name:	WinNT
#	Modification time:	15. 06. 2019 19:18

#	Program:	/corina/corina34_cracker 3.40 0067  02.08.2006

@<TRIPOS>MOLECULE
ASD01410733
 102  108    0    0    0
SMALL
NO_CHARGES


@<TRIPOS>ATOM
   1 N1             2.1341     2.2046    -2.2273 N.3     
   2 C2             1.9493    -1.5049    -1.5203 C.3     
   3 C3             1.6591    -0.1971    -2.2903 C.3     
   4 N4             2.6452    -0.2188    -3.3869 N.am    
   5 C5             2.7282    -1.6125    -3.8435 C.3     
   6 C6             2.3041    -2.4978    -2.6538 C.3     
   7 O7             3.0554    -1.3345    -0.6318 O.3     
   8 C8             1.7946    -1.8302    -5.0063 C.2     
   9 O9             1.1191    -0.9126    -5.4216 O.2     
  10 N10            1.7104    -3.0446    -5.5847 N.am    
  11 C11            1.9123     1.0133    -1.4005 C.3     
  12 C12            3.3678     2.1057    -3.0151 C.3     
  13 C13            3.3515     0.8337    -3.8276 C.2     
  14 O14            3.9707     0.7635    -4.8681 O.2     
  15 C15            3.4696     3.3088    -3.9547 C.3     
  16 C16            2.2731     3.3140    -4.9083 C.3     
  17 C17            0.7397    -3.2798    -6.6564 C.3     
  18 C18           -0.7093    -3.1994    -6.2501 C.2     
  19 N19           -1.0382    -3.0656    -4.9499 N.am    
  20 O20           -1.5795    -3.2551    -7.0931 O.2     
  21 S21           -2.6282    -3.1098    -4.4893 S.o2    
  22 C22           -3.1670    -4.7964    -4.8838 C.3     
  23 C23            1.1073    -2.7973    -8.0610 C.3     
  24 C24            1.1145    -4.2938    -7.7391 C.3     
  25 C25           -4.6462    -5.1310    -4.6813 C.3     
  26 C26           -4.0826    -4.9802    -6.0957 C.3     
  27 O27           -2.5909    -2.9146    -3.0822 O.2     
  28 O28           -3.2666    -2.1699    -5.3427 O.2     
  29 C29           -0.0073    -2.2784    -8.9325 C.2     
  30 C30            0.0283    -1.0469    -9.3776 C.2     
  31 C31            3.1361    -2.1854     0.4211 C.ar    
  32 C32            4.1772    -2.0679     1.3714 C.ar    
  33 C33            2.2080    -3.1781     0.5958 C.ar    
  34 C34            2.3136    -4.0447     1.6923 C.ar    
  35 N35            3.2938    -3.9296     2.5723 N.ar    
  36 C36            4.2249    -2.9775     2.4566 C.ar    
  37 C37            1.3060    -5.1113     1.8692 C.2     
  38 C38            5.2625    -2.8657     3.3986 C.ar    
  39 C39            6.2083    -1.8753     3.2543 C.ar    
  40 C40            6.1476    -0.9803     2.1823 C.ar    
  41 C41            5.1561    -1.0705     1.2541 C.ar    
  42 Cl42           5.3506    -3.9692     4.7359 Cl      
  43 O43            7.2115    -1.7666     4.1642 O.3     
  44 C44            8.1618    -0.7191     3.9601 C.3     
  45 C45            3.4722     4.5992    -3.1327 C.3     
  46 N46            1.2872    -5.9798     2.8397 N.2     
  47 C47            9.2074    -0.7544     5.0765 C.3     
  48 O48            9.9573    -1.9677     4.9885 O.3     
  49 C49           10.9664    -2.1013     5.9914 C.3     
  50 C50            0.3136    -6.8578     2.8366 C.2     
  51 C51           -0.5584    -6.7587     1.8249 C.2     
  52 S52           -0.0669    -5.4074     0.8055 S.3     
  53 C53            0.1838    -7.9130     3.9046 C.3     
  54 C54           -0.7717    -7.4215     4.9938 C.3     
  55 C55           -0.3664    -9.1997     3.2861 C.3     
  56 H56            1.3390     2.3854    -2.8217 H       
  57 H57            1.0655    -1.8364    -0.9753 H       
  58 H58            0.6419    -0.1942    -2.6819 H       
  59 H59            3.7511    -1.8481    -4.1373 H       
  60 H60            3.1285    -3.1421    -2.3485 H       
  61 H61            1.4328    -3.0966    -2.9191 H       
  62 H62            2.2925    -3.7630    -5.2914 H       
  63 H63            2.7926     0.8316    -0.7840 H       
  64 H64            1.0483     1.1758    -0.7561 H       
  65 H65            4.2268     2.0965    -2.3442 H       
  66 H66            4.3928     3.2430    -4.5305 H       
  67 H67            1.3500     3.3798    -4.3325 H       
  68 H68            2.3457     4.1711    -5.5777 H       
  69 H69            2.2713     2.3947    -5.4939 H       
  70 H70           -0.3435    -2.9434    -4.2841 H       
  71 H71           -2.4404    -5.5824    -4.6777 H       
  72 H72            2.0714    -2.3048    -8.1877 H       
  73 H73            2.0835    -4.7857    -7.6543 H       
  74 H74            0.3131    -4.9025    -8.1579 H       
  75 H75           -4.8927    -6.1373    -4.3425 H       
  76 H76           -5.2955    -4.3377    -4.3111 H       
  77 H77           -4.3612    -4.0877    -6.6560 H       
  78 H78           -3.9584    -5.8872    -6.6874 H       
  79 H79           -0.8355    -2.9219    -9.1901 H       
  80 H80           -0.7705    -0.6751   -10.0021 H       
  81 H81            0.8566    -0.4034    -9.1199 H       
  82 H82            1.3975    -3.2923    -0.1089 H       
  83 H83            6.8989    -0.2102     2.0872 H       
  84 H84            5.1211    -0.3727     0.4306 H       
  85 H85            8.6535    -0.8572     2.9972 H       
  86 H86            7.6500     0.2432     3.9720 H       
  87 H87            2.5130     4.7096    -2.6268 H       
  88 H88            4.2708     4.5566    -2.3921 H       
  89 H89            3.6345     5.4507    -3.7935 H       
  90 H90            9.8800     0.0969     4.9714 H       
  91 H91            8.7078    -0.7055     6.0440 H       
  92 H92           11.6755    -1.2779     5.9053 H       
  93 H93           10.5033    -2.0803     6.9779 H       
  94 H94           11.4902    -3.0475     5.8560 H       
  95 H95           -1.4168    -7.3940     1.6640 H       
  96 H96            1.1627    -8.1097     4.3418 H       
  97 H97           -1.7506    -7.2248     4.5566 H       
  98 H98           -0.8655    -8.1848     5.7663 H       
  99 H99           -0.3797    -6.5048     5.4344 H       
 100 H100          -0.4602    -9.9629     4.0586 H       
 101 H101          -1.3453    -9.0030     2.8489 H       
 102 H102           0.3143    -9.5499     2.5102 H       
@<TRIPOS>BOND
   1    1   11 1
   2    1   12 1
   3    1   56 1
   4    2    3 1
   5    2    7 1
   6    2    6 1
   7    2   57 1
   8    3    4 1
   9    3   11 1
  10    3   58 1
  11    4    5 1
  12    4   13 am
  13    5    6 1
  14    5    8 1
  15    5   59 1
  16    6   60 1
  17    6   61 1
  18    7   31 1
  19    8    9 2
  20    8   10 am
  21   10   17 1
  22   10   62 1
  23   11   63 1
  24   11   64 1
  25   12   13 1
  26   12   15 1
  27   12   65 1
  28   13   14 2
  29   15   16 1
  30   15   45 1
  31   15   66 1
  32   16   67 1
  33   16   68 1
  34   16   69 1
  35   17   18 1
  36   17   23 1
  37   17   24 1
  38   18   19 am
  39   18   20 2
  40   19   21 am
  41   19   70 1
  42   21   22 1
  43   21   27 2
  44   21   28 2
  45   22   25 1
  46   22   26 1
  47   22   71 1
  48   23   24 1
  49   23   29 1
  50   23   72 1
  51   24   73 1
  52   24   74 1
  53   25   26 1
  54   25   75 1
  55   25   76 1
  56   26   77 1
  57   26   78 1
  58   29   30 2
  59   29   79 1
  60   30   80 1
  61   30   81 1
  62   31   32 ar
  63   31   33 ar
  64   32   36 ar
  65   32   41 ar
  66   33   34 ar
  67   33   82 1
  68   34   35 ar
  69   34   37 1
  70   35   36 ar
  71   36   38 ar
  72   37   46 2
  73   37   52 1
  74   38   39 ar
  75   38   42 1
  76   39   40 ar
  77   39   43 1
  78   40   41 ar
  79   40   83 1
  80   41   84 1
  81   43   44 1
  82   44   47 1
  83   44   85 1
  84   44   86 1
  85   45   87 1
  86   45   88 1
  87   45   89 1
  88   46   50 1
  89   47   48 1
  90   47   90 1
  91   47   91 1
  92   48   49 1
  93   49   92 1
  94   49   93 1
  95   49   94 1
  96   50   51 2
  97   50   53 1
  98   51   52 1
  99   51   95 1
 100   53   54 1
 101   53   55 1
 102   53   96 1
 103   54   97 1
 104   54   98 1
 105   54   99 1
 106   55  100 1
 107   55  101 1
 108   55  102 1

#	End of record

