#	Name: ASD03731543
#	Creating user name:	WinNT
#	Creation time:	15. 06. 2019 20:45

#	Modifying user name:	WinNT
#	Modification time:	15. 06. 2019 20:45

#	Program:	/corina/corina34_cracker 3.40 0067  02.08.2006

@<TRIPOS>MOLECULE
ASD03731543
  39   40    0    0    0
SMALL
NO_CHARGES


@<TRIPOS>ATOM
   1 C1             0.3751     1.0941     1.9768 C.2     
   2 C2             0.2917    -0.2824     1.4506 C.ar    
   3 C3             1.3744    -0.8358     0.7615 C.ar    
   4 C4             1.2928    -2.1200     0.2721 C.ar    
   5 C5             0.1350    -2.8662     0.4624 C.ar    
   6 C6            -0.9439    -2.3193     1.1472 C.ar    
   7 C7            -0.8676    -1.0376     1.6451 C.ar    
   8 O8             1.3866     1.7481     1.8109 O.2     
   9 N9            -0.6720     1.6280     2.6362 N.am    
  10 S10           -0.5785     3.1724     3.2266 S.o2    
  11 O11           -1.8295     3.3786     3.8683 O.2     
  12 O12            0.6356     3.1925     3.9647 O.2     
  13 C13           -0.4419     4.2146     1.7482 C.3     
  14 C14            2.4596    -2.7177    -0.4711 C.3     
  15 C15            2.2605    -2.5217    -1.9754 C.3     
  16 O16            0.0580    -4.1313    -0.0222 O.3     
  17 C17           -1.1276    -4.7862     0.0893 C.ar    
  18 C18           -2.0816    -4.6707    -0.9116 C.ar    
  19 C19           -3.2868    -5.3376    -0.7962 C.ar    
  20 C20           -3.5417    -6.1204     0.3178 C.ar    
  21 C21           -2.5913    -6.2360     1.3160 C.ar    
  22 C22           -1.3832    -5.5754     1.2013 C.ar    
  23 Cl23          -5.0561    -6.9568     0.4614 Cl      
  24 Cl24          -4.4815    -5.1936    -2.0474 Cl      
  25 H25            2.2738    -0.2566     0.6127 H       
  26 H26           -1.8416    -2.9018     1.2927 H       
  27 H27           -1.7045    -0.6151     2.1813 H       
  28 H28           -1.4804     1.1077     2.7651 H       
  29 H29           -1.3214     4.0716     1.1203 H       
  30 H30           -0.3746     5.2609     2.0462 H       
  31 H31            0.4522     3.9376     1.1897 H       
  32 H32            3.3802    -2.2245    -0.1591 H       
  33 H33            2.5247    -3.7828    -0.2490 H       
  34 H34            1.3399    -3.0148    -2.2873 H       
  35 H35            2.1954    -1.4565    -2.1975 H       
  36 H36            3.1045    -2.9540    -2.5129 H       
  37 H37           -1.8828    -4.0601    -1.7799 H       
  38 H38           -2.7919    -6.8468     2.1839 H       
  39 H39           -0.6397    -5.6701     1.9789 H       
@<TRIPOS>BOND
   1    1    2 1
   2    1    8 2
   3    1    9 am
   4    2    3 ar
   5    2    7 ar
   6    3    4 ar
   7    3   25 1
   8    4    5 ar
   9    4   14 1
  10    5    6 ar
  11    5   16 1
  12    6    7 ar
  13    6   26 1
  14    7   27 1
  15    9   10 am
  16    9   28 1
  17   10   11 2
  18   10   12 2
  19   10   13 1
  20   13   29 1
  21   13   30 1
  22   13   31 1
  23   14   15 1
  24   14   32 1
  25   14   33 1
  26   15   34 1
  27   15   35 1
  28   15   36 1
  29   16   17 1
  30   17   18 ar
  31   17   22 ar
  32   18   19 ar
  33   18   37 1
  34   19   20 ar
  35   19   24 1
  36   20   21 ar
  37   20   23 1
  38   21   22 ar
  39   21   38 1
  40   22   39 1

#	End of record

