#	Name: ASD02500259
#	Creating user name:	WinNT
#	Creation time:	15. 06. 2019 20:22

#	Modifying user name:	WinNT
#	Modification time:	15. 06. 2019 20:22

#	Program:	/corina/corina34_cracker 3.40 0067  02.08.2006

@<TRIPOS>MOLECULE
ASD02500259
  73   77    0    0    0
SMALL
NO_CHARGES


@<TRIPOS>ATOM
   1 N1            -1.3696     6.9310    -2.1814 N.ar    
   2 C2            -1.7367     7.6677    -3.2016 C.ar    
   3 C3            -3.0769     7.9499    -3.4576 C.ar    
   4 C4            -4.0473     7.4538    -2.6345 C.ar    
   5 C5            -3.6493     6.6626    -1.5402 C.ar    
   6 C6            -4.5897     6.1187    -0.6509 C.ar    
   7 C7            -4.1646     5.3588     0.3961 C.ar    
   8 C8            -2.8079     5.1139     0.5973 C.ar    
   9 C9            -1.8694     5.6255    -0.2453 C.ar    
  10 C10           -2.2688     6.4149    -1.3376 C.ar    
  11 S11           -0.1601     5.3006     0.0328 S.o2    
  12 O12            0.5024     6.5561    -0.0295 O.2     
  13 O13           -0.0936     4.4420     1.1631 O.2     
  14 N14            0.3874     4.4184    -1.2573 N.am    
  15 C15           -0.1542     3.1655    -1.5230 C.ar    
  16 C16           -0.5205     2.8305    -2.8210 C.ar    
  17 C17           -1.0589     1.5839    -3.0855 C.ar    
  18 C18           -1.2313     0.6651    -2.0378 C.ar    
  19 C19           -0.8577     1.0173    -0.7369 C.ar    
  20 C20           -0.3224     2.2481    -0.4877 C.ar    
  21 C21           -1.8037    -0.6642    -2.3077 C.2     
  22 O22           -2.8801    -0.7609    -2.8658 O.2     
  23 N23           -1.1351    -1.7739    -1.9363 N.am    
  24 C24           -1.6506    -3.1072    -2.2777 C.3     
  25 C25           -0.5611    -3.8740    -3.0376 C.3     
  26 N26            0.6968    -3.7724    -2.2845 N.am    
  27 C27            1.2122    -2.4392    -1.9431 C.3     
  28 C28            0.1257    -1.6722    -1.1881 C.3     
  29 C29            1.3654    -4.8822    -1.9131 C.2     
  30 C30            2.7138    -4.7632    -1.2507 C.3     
  31 C31            3.6550    -3.9599    -2.1506 C.3     
  32 O32            0.8820    -5.9765    -2.1121 O.2     
  33 C33            2.5626    -4.0596     0.0733 C.ar    
  34 C34            3.6842    -3.6622     0.7769 C.ar    
  35 C35            3.5456    -3.0169     1.9915 C.ar    
  36 C36            2.2853    -2.7684     2.5022 C.ar    
  37 C37            1.1637    -3.1649     1.7982 C.ar    
  38 C38            1.3023    -3.8064     0.5816 C.ar    
  39 C39            3.2950    -6.1600    -1.0225 C.3     
  40 O40           -1.4189     1.2510    -4.3504 O.3     
  41 C41           -1.2143     2.2374    -5.3640 C.3     
  42 H42           -0.9802     8.0668    -3.8610 H       
  43 H43           -3.3481     8.5608    -4.3060 H       
  44 H44           -5.0909     7.6628    -2.8179 H       
  45 H45           -5.6440     6.3022    -0.7961 H       
  46 H46           -4.8886     4.9408     1.0797 H       
  47 H47           -2.4959     4.5086     1.4355 H       
  48 H48            1.0859     4.7757    -1.8277 H       
  49 H49           -0.3854     3.5424    -3.6219 H       
  50 H50           -0.9890     0.3129     0.0711 H       
  51 H51           -0.0314     2.5137     0.5179 H       
  52 H52           -1.9074    -3.6448    -1.3650 H       
  53 H53           -2.5346    -3.0074    -2.9075 H       
  54 H54           -0.8483    -4.9214    -3.1307 H       
  55 H55           -0.4306    -3.4385    -4.0283 H       
  56 H56            2.0963    -2.5390    -1.3133 H       
  57 H57            1.4691    -1.9015    -2.8558 H       
  58 H58            0.4145    -0.6250    -1.0984 H       
  59 H59           -0.0017    -2.1054    -0.1960 H       
  60 H60            3.2933    -2.9349    -2.2317 H       
  61 H61            4.6563    -3.9588    -1.7200 H       
  62 H62            3.6860    -4.4138    -3.1411 H       
  63 H63            4.6689    -3.8564     0.3779 H       
  64 H64            4.4219    -2.7071     2.5415 H       
  65 H65            2.1770    -2.2648     3.4515 H       
  66 H66            0.1791    -2.9711     2.1974 H       
  67 H67            0.4259    -4.1129     0.0298 H       
  68 H68            3.4816    -6.6374    -1.9845 H       
  69 H69            4.2309    -6.0783    -0.4698 H       
  70 H70            2.5865    -6.7594    -0.4508 H       
  71 H71           -1.5432     1.8438    -6.3257 H       
  72 H72           -1.7884     3.1317    -5.1218 H       
  73 H73           -0.1551     2.4890    -5.4175 H       
@<TRIPOS>BOND
   1    1    2 ar
   2    1   10 ar
   3    2    3 ar
   4    2   42 1
   5    3    4 ar
   6    3   43 1
   7    4    5 ar
   8    4   44 1
   9    5    6 ar
  10    5   10 ar
  11    6    7 ar
  12    6   45 1
  13    7    8 ar
  14    7   46 1
  15    8    9 ar
  16    8   47 1
  17    9   10 ar
  18    9   11 1
  19   11   12 2
  20   11   13 2
  21   11   14 am
  22   14   15 1
  23   14   48 1
  24   15   16 ar
  25   15   20 ar
  26   16   17 ar
  27   16   49 1
  28   17   18 ar
  29   17   40 1
  30   18   19 ar
  31   18   21 1
  32   19   20 ar
  33   19   50 1
  34   20   51 1
  35   21   22 2
  36   21   23 am
  37   23   24 1
  38   23   28 1
  39   24   25 1
  40   24   52 1
  41   24   53 1
  42   25   26 1
  43   25   54 1
  44   25   55 1
  45   26   27 1
  46   26   29 am
  47   27   28 1
  48   27   56 1
  49   27   57 1
  50   28   58 1
  51   28   59 1
  52   29   30 1
  53   29   32 2
  54   30   31 1
  55   30   33 1
  56   30   39 1
  57   31   60 1
  58   31   61 1
  59   31   62 1
  60   33   34 ar
  61   33   38 ar
  62   34   35 ar
  63   34   63 1
  64   35   36 ar
  65   35   64 1
  66   36   37 ar
  67   36   65 1
  68   37   38 ar
  69   37   66 1
  70   38   67 1
  71   39   68 1
  72   39   69 1
  73   39   70 1
  74   40   41 1
  75   41   71 1
  76   41   72 1
  77   41   73 1

#	End of record

