#	Name: ASD01903295
#	Creating user name:	WinNT
#	Creation time:	15. 06. 2019 19:54

#	Modifying user name:	WinNT
#	Modification time:	15. 06. 2019 19:54

#	Program:	/corina/corina34_cracker 3.40 0067  02.08.2006

@<TRIPOS>MOLECULE
ASD01903295
  38   41    0    0    0
SMALL
NO_CHARGES


@<TRIPOS>ATOM
   1 C1             0.0316     1.3107     0.0770 C.ar    
   2 C2            -1.0987     1.6194    -0.6625 C.ar    
   3 C3            -1.0980     2.7499    -1.4650 C.ar    
   4 C4             0.0426     3.5362    -1.4983 C.ar    
   5 C5             1.1430     3.1653    -0.7284 C.ar    
   6 N6             1.1011     2.0746     0.0269 N.ar    
   7 C7             2.3700     3.9948    -0.7533 C.2     
   8 O8             2.4139     4.9942    -1.4433 O.2     
   9 N9             3.4376     3.6411    -0.0106 N.am    
  10 C10            4.6295     4.3682    -0.1080 C.ar    
  11 C11            4.5905     5.7426    -0.3032 C.ar    
  12 C12            5.7673     6.4599    -0.3992 C.ar    
  13 C13            6.9891     5.8060    -0.3005 C.ar    
  14 C14            7.0273     4.4320    -0.1053 C.ar    
  15 C15            5.8516     3.7160    -0.0036 C.ar    
  16 N16            8.1846     6.5334    -0.4043 N.am    
  17 C17            8.8326     6.7725    -1.5584 C.2     
  18 C18           10.0483     7.5697    -1.2615 C.ar    
  19 C19           10.0437     7.7642     0.1319 C.ar    
  20 C20            8.8310     7.0887     0.6368 C.2     
  21 O21            8.4818     6.3984    -2.6588 O.2     
  22 O22            8.4799     7.0372     1.7981 O.2     
  23 N23           11.0208     8.0697    -2.0008 N.ar    
  24 C24           12.0094     8.7599    -1.4663 C.ar    
  25 C25           12.0719     8.9918    -0.1026 C.ar    
  26 C26           11.0735     8.4882     0.7213 C.ar    
  27 Cl27           5.7193     8.1779    -0.6439 Cl      
  28 H28            0.0328     0.4333     0.7067 H       
  29 H29           -1.9716     0.9853    -0.6145 H       
  30 H30           -1.9666     3.0116    -2.0511 H       
  31 H31            0.0782     4.4237    -2.1127 H       
  32 H32            3.3800     2.8826     0.5913 H       
  33 H33            3.6405     6.2505    -0.3803 H       
  34 H34            7.9772     3.9238    -0.0285 H       
  35 H35            5.8818     2.6471     0.1483 H       
  36 H36           12.7866     9.1522    -2.1054 H       
  37 H37           12.8896     9.5593     0.3167 H       
  38 H38           11.0971     8.6535     1.7883 H       
@<TRIPOS>BOND
   1    1    2 ar
   2    1    6 ar
   3    1   28 1
   4    2    3 ar
   5    2   29 1
   6    3    4 ar
   7    3   30 1
   8    4    5 ar
   9    4   31 1
  10    5    6 ar
  11    5    7 1
  12    7    8 2
  13    7    9 am
  14    9   10 1
  15    9   32 1
  16   10   11 ar
  17   10   15 ar
  18   11   12 ar
  19   11   33 1
  20   12   27 1
  21   12   13 ar
  22   13   14 ar
  23   13   16 1
  24   14   15 ar
  25   14   34 1
  26   15   35 1
  27   16   17 am
  28   16   20 am
  29   17   18 1
  30   17   21 2
  31   18   19 ar
  32   18   23 ar
  33   19   20 1
  34   19   26 ar
  35   20   22 2
  36   23   24 ar
  37   24   25 ar
  38   24   36 1
  39   25   26 ar
  40   25   37 1
  41   26   38 1

#	End of record

