#	Name: ASD01883402
#	Creating user name:	WinNT
#	Creation time:	15. 06. 2019 19:46

#	Modifying user name:	WinNT
#	Modification time:	15. 06. 2019 19:46

#	Program:	/corina/corina34_cracker 3.40 0067  02.08.2006

@<TRIPOS>MOLECULE
ASD01883402
  53   56    0    0    0
SMALL
NO_CHARGES


@<TRIPOS>ATOM
   1 N1             0.0021     1.3082    -0.0152 N.am    
   2 C2            -0.7518     1.3829     1.0973 C.2     
   3 C3            -1.9997     0.7182     1.1499 C.2     
   4 C4            -2.4239    -0.0108     0.0261 C.2     
   5 C5            -1.5912    -0.0513    -1.1076 C.2     
   6 C6            -0.4117     0.6073    -1.1028 C.2     
   7 O7            -0.3596     2.0222     2.0588 O.2     
   8 C8            -2.8143     0.7866     2.3257 C.1     
   9 N9            -3.4606     0.8409     3.2584 N.1     
  10 C10            1.2919     2.0017    -0.0562 C.3     
  11 N11           -3.6309    -0.6732     0.0341 N.pl3   
  12 C12            2.3744     1.0790     0.4414 C.ar    
  13 C13           -4.8964     0.0654     0.1606 C.3     
  14 C14           -5.8354    -0.3813    -0.9650 C.3     
  15 N15           -5.9647    -1.8444    -0.9388 N.3     
  16 C16           -4.6754    -2.4981    -1.1997 C.3     
  17 C17           -3.6892    -2.1376    -0.0898 C.3     
  18 C18           -6.9877    -2.2996    -1.8897 C.3     
  19 C19            3.0473     0.2612    -0.4472 C.ar    
  20 C20            4.0406    -0.5851     0.0080 C.ar    
  21 C21            4.3616    -0.6137     1.3545 C.ar    
  22 C22            3.6870     0.2057     2.2435 C.ar    
  23 C23            2.6977     1.0550     1.7853 C.ar    
  24 F24            5.3321    -1.4410     1.8006 F       
  25 C25           -6.9236    -3.7998    -2.0165 C.ar    
  26 C26           -7.6796    -4.5965    -1.1773 C.ar    
  27 C27           -7.6216    -5.9745    -1.2935 C.ar    
  28 C28           -6.8047    -6.5542    -2.2521 C.ar    
  29 C29           -6.0489    -5.7536    -3.0909 C.ar    
  30 C30           -6.1130    -4.3778    -2.9759 C.ar    
  31 F31           -8.3599    -6.7539    -0.4733 F       
  32 F32           -6.7461    -7.8990    -2.3670 F       
  33 H33           -1.8967    -0.6057    -1.9826 H       
  34 H34            0.2190     0.5690    -1.9787 H       
  35 H35            1.5116     2.3000    -1.0814 H       
  36 H36            1.2488     2.8869     0.5784 H       
  37 H37           -5.3527    -0.1526     1.1262 H       
  38 H38           -4.7061     1.1353     0.0757 H       
  39 H39           -6.8159     0.0731    -0.8226 H       
  40 H40           -5.4256    -0.0696    -1.9257 H       
  41 H41           -4.8145    -3.5788    -1.2275 H       
  42 H42           -4.2817    -2.1568    -2.1571 H       
  43 H43           -2.7011    -2.5253    -0.3378 H       
  44 H44           -4.0273    -2.5657     0.8538 H       
  45 H45           -7.9742    -2.0072    -1.5297 H       
  46 H46           -6.8067    -1.8446    -2.8635 H       
  47 H47            2.7965     0.2834    -1.4974 H       
  48 H48            4.5659    -1.2241    -0.6864 H       
  49 H49            3.9365     0.1842     3.2941 H       
  50 H50            2.1713     1.6943     2.4786 H       
  51 H51           -8.3153    -4.1437    -0.4308 H       
  52 H52           -5.4121    -6.2039    -3.8380 H       
  53 H53           -5.5230    -3.7536    -3.6307 H       
@<TRIPOS>BOND
   1    1    2 am
   2    1   10 1
   3    1    6 1
   4    2    3 1
   5    2    7 2
   6    3    4 2
   7    3    8 1
   8    4    5 1
   9    4   11 1
  10    5    6 2
  11    5   33 1
  12    6   34 1
  13    8    9 3
  14   10   12 1
  15   10   35 1
  16   10   36 1
  17   11   13 1
  18   11   17 1
  19   12   19 ar
  20   12   23 ar
  21   13   14 1
  22   13   37 1
  23   13   38 1
  24   14   15 1
  25   14   39 1
  26   14   40 1
  27   15   16 1
  28   15   18 1
  29   16   17 1
  30   16   41 1
  31   16   42 1
  32   17   43 1
  33   17   44 1
  34   18   25 1
  35   18   45 1
  36   18   46 1
  37   19   20 ar
  38   19   47 1
  39   20   21 ar
  40   20   48 1
  41   21   22 ar
  42   21   24 1
  43   22   23 ar
  44   22   49 1
  45   23   50 1
  46   25   26 ar
  47   25   30 ar
  48   26   27 ar
  49   26   51 1
  50   27   28 ar
  51   27   31 1
  52   28   29 ar
  53   28   32 1
  54   29   30 ar
  55   29   52 1
  56   30   53 1

#	End of record

