#	Name: ASD01881644
#	Creating user name:	WinNT
#	Creation time:	15. 06. 2019 19:43

#	Modifying user name:	WinNT
#	Modification time:	15. 06. 2019 19:43

#	Program:	/corina/corina34_cracker 3.40 0067  02.08.2006

@<TRIPOS>MOLECULE
ASD01881644
  43   45    0    0    0
SMALL
NO_CHARGES


@<TRIPOS>ATOM
   1 C1            -0.0159     1.3189     0.0093 C.ar    
   2 N2             0.0021    -0.0041     0.0020 N.ar    
   3 C3             1.1530    -0.6654    -0.0126 C.ar    
   4 C4             2.3472     0.0542    -0.0202 C.ar    
   5 C5             2.2845     1.4346    -0.0121 C.ar    
   6 N6             1.1005     2.0287     0.0024 N.ar    
   7 O7            -1.2075     1.9629     0.0184 O.3     
   8 O8             1.1671    -2.0205    -0.0195 O.3     
   9 C9             3.6757    -0.6571    -0.0362 C.3     
  10 O10            4.7315     0.3059    -0.0413 O.3     
  11 N11            9.9485    -1.3628    -0.0982 N.pl3   
  12 N12           10.5204    -0.0819    -0.0977 N.2     
  13 N13            9.5874     0.8035    -0.0850 N.2     
  14 C14            8.3775     0.2092    -0.0764 C.ar    
  15 C15            8.5843    -1.1811    -0.0846 C.ar    
  16 C16            7.0670     0.7062    -0.0612 C.ar    
  17 C17            6.0041    -0.1733    -0.0556 C.ar    
  18 C18            6.2249    -1.5484    -0.0642 C.ar    
  19 C19            7.4970    -2.0474    -0.0777 C.ar    
  20 C20           10.6625    -2.6419    -0.1160 C.3     
  21 C21           10.9301    -3.0966     1.3201 C.3     
  22 C22            9.6004    -3.2652     2.0579 C.3     
  23 C23           11.6759    -4.4325     1.3015 C.3     
  24 C24           11.7817    -2.0471     2.0371 C.3     
  25 Br25           6.7575     2.5717    -0.0493 Br      
  26 H26            3.1905     2.0225    -0.0173 H       
  27 H27           -1.5494     2.1450     0.9044 H       
  28 H28            1.1625    -2.4093    -0.9049 H       
  29 H29            3.7619    -1.2860     0.8498 H       
  30 H30            3.7451    -1.2770    -0.9300 H       
  31 H31            5.3839    -2.2260    -0.0594 H       
  32 H32            7.6577    -3.1154    -0.0840 H       
  33 H33           10.0558    -3.3896    -0.6268 H       
  34 H34           11.6099    -2.5218    -0.6416 H       
  35 H35            8.9937    -4.0129     1.5470 H       
  36 H36            9.7910    -3.5892     3.0810 H       
  37 H37            9.0691    -2.3135     2.0711 H       
  38 H38           12.6232    -4.3124     0.7759 H       
  39 H39           11.8665    -4.7565     2.3246 H       
  40 H40           11.0692    -5.1802     0.7907 H       
  41 H41           11.2504    -1.0954     2.0504 H       
  42 H42           11.9723    -2.3711     3.0603 H       
  43 H43           12.7290    -1.9270     1.5116 H       
@<TRIPOS>BOND
   1    1    2 ar
   2    1    6 ar
   3    1    7 1
   4    2    3 ar
   5    3    4 ar
   6    3    8 1
   7    4    5 ar
   8    4    9 1
   9    5    6 ar
  10    5   26 1
  11    7   27 1
  12    8   28 1
  13    9   10 1
  14    9   29 1
  15    9   30 1
  16   10   17 1
  17   11   12 1
  18   11   15 1
  19   11   20 1
  20   12   13 2
  21   13   14 1
  22   14   15 ar
  23   14   16 ar
  24   15   19 ar
  25   16   17 ar
  26   16   25 1
  27   17   18 ar
  28   18   19 ar
  29   18   31 1
  30   19   32 1
  31   20   21 1
  32   20   33 1
  33   20   34 1
  34   21   22 1
  35   21   23 1
  36   21   24 1
  37   22   35 1
  38   22   36 1
  39   22   37 1
  40   23   38 1
  41   23   39 1
  42   23   40 1
  43   24   41 1
  44   24   42 1
  45   24   43 1

#	End of record

