#	Name: ASD04910534
#	Creating user name:	WinNT
#	Creation time:	15. 06. 2019 20:56

#	Modifying user name:	WinNT
#	Modification time:	15. 06. 2019 20:56

#	Program:	/corina/corina34_cracker 3.40 0067  02.08.2006

@<TRIPOS>MOLECULE
ASD04910534
  61   63    0    0    0
SMALL
NO_CHARGES


@<TRIPOS>ATOM
   1 C1             0.3792     1.4255     1.2893 C.2     
   2 C2             0.3353    -0.0762     1.1699 C.3     
   3 C3             1.7324    -0.6022     0.8347 C.3     
   4 O4             1.4210     2.0145     1.1233 O.2     
   5 O5            -0.7402     2.1090     1.5746 O.3     
   6 C6             2.8126    -2.7479     0.4266 C.2     
   7 C7             2.7695    -4.2210     0.3095 C.ar    
   8 C8             3.9305    -4.9344     0.0072 C.ar    
   9 C9             3.8835    -6.3090    -0.1002 C.ar    
  10 C10            2.6889    -6.9804     0.0906 C.ar    
  11 C11            1.5344    -6.2793     0.3904 C.ar    
  12 C12            1.5688    -4.9050     0.5063 C.ar    
  13 O13            3.8606    -2.1553     0.2596 O.2     
  14 N14            1.6897    -2.0620     0.7186 N.am    
  15 C15            2.6449    -8.4820    -0.0293 C.3     
  16 C16            2.0967    -8.8680    -1.4046 C.3     
  17 C17            2.9808    -8.2597    -2.4951 C.3     
  18 N18            1.7752    -9.0299     1.0145 N.pl3   
  19 C19            3.5913    -8.9294     2.6080 C.ar    
  20 C20            2.2908    -9.2926     2.2878 C.ar    
  21 C21            1.5049    -9.9221     3.2516 C.ar    
  22 C22            2.0566   -10.1614     4.4974 C.ar    
  23 C23            3.3662    -9.7691     4.7451 C.ar    
  24 N24            4.0836    -9.1738     3.8069 N.ar    
  25 N25            3.9333   -10.0069     6.0027 N.pl3   
  26 C26            3.3624   -10.6878     7.0307 C.2     
  27 N27            4.1958   -10.6996     8.0349 N.2     
  28 C28            5.3121   -10.0384     7.6941 C.2     
  29 C29            5.1725    -9.6018     6.4282 C.2     
  30 C30            6.5167    -9.8260     8.5743 C.3     
  31 F31            6.3460   -10.5239     9.7748 F       
  32 F32            7.6608   -10.2958     7.9204 F       
  33 F33            6.6616    -8.4611     8.8450 F       
  34 C34            2.0922   -10.3917    -1.5425 C.3     
  35 C35            0.6688    -8.3384    -1.5513 C.3     
  36 H36            0.0022    -0.5062     2.1145 H       
  37 H37           -0.3586    -0.3575     0.3778 H       
  38 H38            2.0655    -0.1722    -0.1099 H       
  39 H39            2.4263    -0.3208     1.6268 H       
  40 H40           -0.6625     3.0706     1.6410 H       
  41 H41            4.8635    -4.4114    -0.1426 H       
  42 H42            4.7812    -6.8621    -0.3340 H       
  43 H43            0.6051    -6.8094     0.5381 H       
  44 H44            0.6679    -4.3593     0.7448 H       
  45 H45            0.8534    -2.5348     0.8519 H       
  46 H46            3.6508    -8.8854     0.0871 H       
  47 H47            3.9981    -8.6370    -2.3906 H       
  48 H48            2.5902    -8.5347    -3.4749 H       
  49 H49            2.9840    -7.1742    -2.3969 H       
  50 H50            0.8417    -9.2105     0.8225 H       
  51 H51            4.2087    -8.4452     1.8658 H       
  52 H52            0.4893   -10.2159     3.0311 H       
  53 H53            1.4763   -10.6467     5.2681 H       
  54 H54            2.3828   -11.1425     7.0189 H       
  55 H55            5.8965    -9.0386     5.8580 H       
  56 H56            1.5260   -10.8293    -0.7203 H       
  57 H57            1.6304   -10.6694    -2.4900 H       
  58 H58            3.1171   -10.7620    -1.5155 H       
  59 H59            0.6719    -7.2529    -1.4531 H       
  60 H60            0.2782    -8.6134    -2.5311 H       
  61 H61            0.0389    -8.7717    -0.7744 H       
@<TRIPOS>BOND
   1    1    2 1
   2    1    4 2
   3    1    5 1
   4    2    3 1
   5    2   36 1
   6    2   37 1
   7    3   14 1
   8    3   38 1
   9    3   39 1
  10    5   40 1
  11    6    7 1
  12    6   13 2
  13    6   14 am
  14    7    8 ar
  15    7   12 ar
  16    8    9 ar
  17    8   41 1
  18    9   10 ar
  19    9   42 1
  20   10   11 ar
  21   10   15 1
  22   11   12 ar
  23   11   43 1
  24   12   44 1
  25   14   45 1
  26   15   16 1
  27   15   18 1
  28   15   46 1
  29   16   17 1
  30   16   34 1
  31   16   35 1
  32   17   47 1
  33   17   48 1
  34   17   49 1
  35   18   20 1
  36   18   50 1
  37   19   20 ar
  38   19   24 ar
  39   19   51 1
  40   20   21 ar
  41   21   22 ar
  42   21   52 1
  43   22   23 ar
  44   22   53 1
  45   23   24 ar
  46   23   25 1
  47   25   26 1
  48   25   29 1
  49   26   27 2
  50   26   54 1
  51   27   28 1
  52   28   29 2
  53   28   30 1
  54   29   55 1
  55   30   31 1
  56   30   32 1
  57   30   33 1
  58   34   56 1
  59   34   57 1
  60   34   58 1
  61   35   59 1
  62   35   60 1
  63   35   61 1

#	End of record

