#	Name: ASD01813350
#	Creating user name:	WinNT
#	Creation time:	15. 06. 2019 19:30

#	Modifying user name:	WinNT
#	Modification time:	15. 06. 2019 19:30

#	Program:	/corina/corina34_cracker 3.40 0067  02.08.2006

@<TRIPOS>MOLECULE
ASD01813350
  63   66    0    0    0
SMALL
NO_CHARGES


@<TRIPOS>ATOM
   1 C1             0.1793     1.3620     0.5472 C.2     
   2 C2             0.2083    -0.0389     0.5238 C.2     
   3 C3             1.3872    -0.6822     0.2842 C.2     
   4 C4             2.5526     0.0709     0.0649 C.2     
   5 N5             2.4955     1.4379     0.0938 N.am    
   6 C6             1.3115     2.0699     0.3339 C.2     
   7 C7             3.7655    -0.5878    -0.1815 C.2     
   8 C8             4.9035     0.1343    -0.3954 C.2     
   9 C9             4.8409     1.5398    -0.3655 C.2     
  10 C10            3.6064     2.1729    -0.1148 C.2     
  11 O11            3.5429     3.3904    -0.0874 O.2     
  12 C12            6.0479     2.3379    -0.5915 C.2     
  13 O13            5.9812     3.6849    -0.5615 O.3     
  14 O14            7.1105     1.7862    -0.8062 O.2     
  15 C15            3.8125    -2.0938    -0.2096 C.3     
  16 C16            3.6749    -2.5815    -1.6533 C.3     
  17 N17            3.7208    -4.0495    -1.6807 N.3     
  18 C18            2.5531    -4.6244    -1.0055 C.3     
  19 C19            2.5601    -6.1261    -1.1259 C.ar    
  20 C20            3.3325    -6.7766    -2.0651 C.ar    
  21 C21            4.2195    -6.0206    -3.0209 C.3     
  22 C22            3.8073    -4.5488    -3.0623 C.3     
  23 C23            1.7612    -6.8605    -0.2605 C.ar    
  24 C24            1.7322    -8.2370    -0.3337 C.ar    
  25 C25            2.5071    -8.8943    -1.2806 C.ar    
  26 C26            3.3057    -8.1597    -2.1439 C.ar    
  27 N27            2.4827   -10.2912    -1.3624 N.am    
  28 C28            1.3369   -10.9602    -1.1258 C.2     
  29 O29            1.2893   -12.2951    -1.2958 O.3     
  30 O30            0.3468   -10.3587    -0.7592 O.2     
  31 C31            0.0223   -12.9496    -1.0226 C.3     
  32 C32           -1.0561   -12.3790    -1.9458 C.3     
  33 C33            0.1614   -14.4532    -1.2692 C.3     
  34 C34           -0.3734   -12.7064     0.4352 C.3     
  35 H35           -0.7513     1.8780     0.7319 H       
  36 H36           -0.6956    -0.6048     0.6945 H       
  37 H37            1.4243    -1.7614     0.2636 H       
  38 H38            1.2776     3.1491     0.3545 H       
  39 H39            5.8412    -0.3670    -0.5850 H       
  40 H40            6.8041     4.1688    -0.7163 H       
  41 H41            4.7630    -2.4354     0.2002 H       
  42 H42            2.9941    -2.4942     0.3887 H       
  43 H43            2.7244    -2.2400    -2.0631 H       
  44 H44            4.4934    -2.1812    -2.2516 H       
  45 H45            2.5748    -4.3480     0.0486 H       
  46 H46            1.6443    -4.2313    -1.4613 H       
  47 H47            5.2555    -6.0971    -2.6907 H       
  48 H48            4.1264    -6.4507    -4.0181 H       
  49 H49            2.8360    -4.4540    -3.5478 H       
  50 H50            4.5527    -3.9750    -3.6130 H       
  51 H51            1.1582    -6.3500     0.4758 H       
  52 H52            1.1091    -8.8024     0.3434 H       
  53 H53            3.9089    -8.6679    -2.8817 H       
  54 H54            3.2905   -10.7779    -1.5892 H       
  55 H55           -0.7741   -12.5522    -2.9843 H       
  56 H56           -2.0072   -12.8703    -1.7406 H       
  57 H57           -1.1552   -11.3078    -1.7700 H       
  58 H58            0.9297   -14.8597    -0.6115 H       
  59 H59           -0.7897   -14.9445    -1.0641 H       
  60 H60            0.4433   -14.6264    -2.3078 H       
  61 H61           -0.4725   -11.6353     0.6110 H       
  62 H62           -1.3245   -13.1978     0.6404 H       
  63 H63            0.3949   -13.1130     1.0929 H       
@<TRIPOS>BOND
   1    1    2 1
   2    1    6 2
   3    1   35 1
   4    2    3 2
   5    2   36 1
   6    3    4 1
   7    3   37 1
   8    4    5 1
   9    4    7 2
  10    5    6 1
  11    5   10 am
  12    6   38 1
  13    7    8 1
  14    7   15 1
  15    8    9 2
  16    8   39 1
  17    9   10 1
  18    9   12 1
  19   10   11 2
  20   12   13 1
  21   12   14 2
  22   13   40 1
  23   15   16 1
  24   15   41 1
  25   15   42 1
  26   16   17 1
  27   16   43 1
  28   16   44 1
  29   17   18 1
  30   17   22 1
  31   18   19 1
  32   18   45 1
  33   18   46 1
  34   19   20 ar
  35   19   23 ar
  36   20   21 1
  37   20   26 ar
  38   21   22 1
  39   21   47 1
  40   21   48 1
  41   22   49 1
  42   22   50 1
  43   23   24 ar
  44   23   51 1
  45   24   25 ar
  46   24   52 1
  47   25   26 ar
  48   25   27 1
  49   26   53 1
  50   27   28 am
  51   27   54 1
  52   28   29 1
  53   28   30 2
  54   29   31 1
  55   31   32 1
  56   31   33 1
  57   31   34 1
  58   32   55 1
  59   32   56 1
  60   32   57 1
  61   33   58 1
  62   33   59 1
  63   33   60 1
  64   34   61 1
  65   34   62 1
  66   34   63 1

#	End of record

