#	Name: ASD03200037
#	Creating user name:	WinNT
#	Creation time:	15. 06. 2019 20:34

#	Modifying user name:	WinNT
#	Modification time:	15. 06. 2019 20:34

#	Program:	/corina/corina34_cracker 3.40 0067  02.08.2006

@<TRIPOS>MOLECULE
ASD03200037
  49   51    0    0    0
SMALL
NO_CHARGES


@<TRIPOS>ATOM
   1 C1            -0.0627     1.5037    -0.0282 C.3     
   2 N2            -0.0288     0.0357    -0.0149 N.3     
   3 C3             0.6344    -0.4692     1.1942 C.3     
   4 C4             2.0854     0.0165     1.2223 C.3     
   5 C5             2.1064     1.5475     1.2075 C.3     
   6 C6             1.3675     2.0482    -0.0366 C.3     
   7 C7            -1.3119    -0.4949    -0.1394 C.ar    
   8 C8            -2.2750    -0.2744     0.8421 C.ar    
   9 C9            -3.5342    -0.8163     0.6819 C.ar    
  10 N10           -3.8335    -1.5361    -0.3828 N.ar    
  11 C11           -2.9528    -1.7706    -1.3375 C.ar    
  12 C12           -1.6684    -1.2586    -1.2573 C.ar    
  13 N13           -0.7369    -1.5105    -2.2736 N.am    
  14 C14           -0.7593    -2.6864    -2.9320 C.2     
  15 C15            0.1295    -2.9023    -4.0756 C.2     
  16 O16           -1.5186    -3.5691    -2.5758 O.2     
  17 C17            0.1549    -4.0784    -4.7888 C.2     
  18 S18            1.3556    -3.9107    -6.0675 S.3     
  19 C19            1.7143    -2.2747    -5.5270 C.2     
  20 N20            0.9803    -1.9713    -4.5178 N.2     
  21 C21            2.7310    -1.3603    -6.1605 C.3     
  22 N22            2.7422    -0.4712     2.4424 N.3     
  23 N23           -0.6229    -5.1939    -4.5450 N.pl3   
  24 C24            4.1147    -2.0094    -6.0901 C.3     
  25 C25            2.3559    -1.1163    -7.6236 C.3     
  26 H26           -0.5872     1.8467    -0.9201 H       
  27 H27           -0.5830     1.8630     0.8596 H       
  28 H28            0.1109    -0.1006     2.0763 H       
  29 H29            0.6162    -1.5590     1.1902 H       
  30 H30            2.6132    -0.3632     0.3475 H       
  31 H31            1.6126     1.9272     2.1019 H       
  32 H32            3.1384     1.8974     1.1837 H       
  33 H33            1.8840     1.7006    -0.9312 H       
  34 H34            1.3420     3.1379    -0.0307 H       
  35 H35           -2.0395     0.3128     1.7174 H       
  36 H36           -4.2857    -0.6491     1.4394 H       
  37 H37           -3.2380    -2.3653    -2.1927 H       
  38 H38           -0.0761    -0.8386    -2.5033 H       
  39 H39            2.7478    -0.4102    -5.6264 H       
  40 H40            3.7022    -0.1634     2.4839 H       
  41 H41            2.2345    -0.1844     3.2658 H       
  42 H42           -1.2593    -5.1910    -3.8129 H       
  43 H43           -0.5326    -5.9801    -5.1059 H       
  44 H44            4.0979    -2.9595    -6.6242 H       
  45 H45            4.8500    -1.3480    -6.5482 H       
  46 H46            4.3819    -2.1833    -5.0477 H       
  47 H47            3.0913    -0.4549    -8.0817 H       
  48 H48            2.3391    -2.0663    -8.1576 H       
  49 H49            1.3702    -0.6538    -7.6737 H       
@<TRIPOS>BOND
   1    1    2 1
   2    1    6 1
   3    1   26 1
   4    1   27 1
   5    2    3 1
   6    2    7 1
   7    3    4 1
   8    3   28 1
   9    3   29 1
  10    4    5 1
  11    4   22 1
  12    4   30 1
  13    5    6 1
  14    5   31 1
  15    5   32 1
  16    6   33 1
  17    6   34 1
  18    7    8 ar
  19    7   12 ar
  20    8    9 ar
  21    8   35 1
  22    9   10 ar
  23    9   36 1
  24   10   11 ar
  25   11   12 ar
  26   11   37 1
  27   12   13 1
  28   13   14 am
  29   13   38 1
  30   14   15 1
  31   14   16 2
  32   15   17 2
  33   15   20 1
  34   17   18 1
  35   17   23 1
  36   18   19 1
  37   19   20 2
  38   19   21 1
  39   21   24 1
  40   21   25 1
  41   21   39 1
  42   22   40 1
  43   22   41 1
  44   23   42 1
  45   23   43 1
  46   24   44 1
  47   24   45 1
  48   24   46 1
  49   25   47 1
  50   25   48 1
  51   25   49 1

#	End of record

