#	Name: ASD01911689
#	Creating user name:	WinNT
#	Creation time:	15. 06. 2019 19:58

#	Modifying user name:	WinNT
#	Modification time:	15. 06. 2019 19:58

#	Program:	/corina/corina34_cracker 3.40 0067  02.08.2006

@<TRIPOS>MOLECULE
ASD01911689
  56   60    0    0    0
SMALL
NO_CHARGES


@<TRIPOS>ATOM
   1 C1             0.0800     1.3947     0.2249 C.ar    
   2 C2             0.0884     0.0154     0.2640 C.ar    
   3 C3             1.2415    -0.6825    -0.0888 C.ar    
   4 C4             2.3817     0.0162    -0.4798 C.ar    
   5 C5             2.3647     1.3954    -0.5161 C.ar    
   6 C6             1.2161     2.0855    -0.1644 C.ar    
   7 C7             1.2552    -2.1662    -0.0478 C.2     
   8 N8             0.2471    -2.9372     0.3025 N.2     
   9 C9             2.3444    -2.9885    -0.3820 C.2     
  10 C10            1.9545    -4.2849    -0.2141 C.2     
  11 N11            0.6584    -4.2728     0.2096 N.pl3   
  12 C12            2.7855    -5.4860    -0.4524 C.ar    
  13 C13            3.8828    -5.4187    -1.3111 C.ar    
  14 C14            4.6545    -6.5409    -1.5296 C.ar    
  15 C15            4.3413    -7.7338    -0.8978 C.ar    
  16 C16            3.2520    -7.8060    -0.0443 C.ar    
  17 C17            2.4775    -6.6880     0.1853 C.ar    
  18 C18           -0.1598    -5.4494     0.5136 C.3     
  19 C19           -0.0826    -5.7475     1.9888 C.2     
  20 N20           -0.7606    -6.7935     2.5014 N.am    
  21 O21            0.5897    -5.0462     2.7148 O.2     
  22 C22           -0.6990    -7.1021     3.9381 C.3     
  23 C23           -1.5866    -7.6530     1.6398 C.3     
  24 C24           -2.9810    -7.7718     2.2642 C.3     
  25 N25           -2.8539    -8.2256     3.6555 N.3     
  26 C26           -2.1301    -7.2437     4.4673 C.3     
  27 C27           -4.0951    -8.5003     4.2029 C.ar    
  28 N28           -4.1699    -8.9232     5.4563 N.ar    
  29 N29           -5.1806    -8.3288     3.4628 N.ar    
  30 C30           -6.3818    -8.5817     3.9557 C.ar    
  31 C31           -6.4959    -9.0307     5.2620 C.ar    
  32 C32           -5.3404    -9.1941     6.0098 C.ar    
  33 F33            5.1002    -8.8302    -1.1151 F       
  34 F34            1.2037     3.4360    -0.2013 F       
  35 H35           -0.8148     1.9364     0.4939 H       
  36 H36           -0.7975    -0.5223     0.5679 H       
  37 H37            3.2777    -0.5210    -0.7537 H       
  38 H38            3.2483     1.9378    -0.8187 H       
  39 H39            3.3164    -2.6540    -0.7133 H       
  40 H40            4.1276    -4.4895    -1.8043 H       
  41 H41            5.5041    -6.4899    -2.1945 H       
  42 H42            3.0118    -8.7381     0.4454 H       
  43 H43            1.6287    -6.7452     0.8507 H       
  44 H44           -1.1955    -5.2533     0.2363 H       
  45 H45            0.2113    -6.3055    -0.0500 H       
  46 H46           -0.1586    -8.0366     4.0891 H       
  47 H47           -0.1921    -6.2935     4.4649 H       
  48 H48           -1.6663    -7.2085     0.6477 H       
  49 H49           -1.1330    -8.6414     1.5659 H       
  50 H50           -3.4733    -6.7996     2.2422 H       
  51 H51           -3.5723    -8.4923     1.6991 H       
  52 H52           -2.0986    -7.5807     5.5034 H       
  53 H53           -2.6386    -6.2810     4.4128 H       
  54 H54           -7.2630    -8.4398     3.3476 H       
  55 H55           -7.4645    -9.2444     5.6894 H       
  56 H56           -5.3947    -9.5423     7.0307 H       
@<TRIPOS>BOND
   1    1    2 ar
   2    1    6 ar
   3    1   35 1
   4    2    3 ar
   5    2   36 1
   6    3    4 ar
   7    3    7 1
   8    4    5 ar
   9    4   37 1
  10    5    6 ar
  11    5   38 1
  12    6   34 1
  13    7    8 2
  14    7    9 1
  15    8   11 1
  16    9   10 2
  17    9   39 1
  18   10   11 1
  19   10   12 1
  20   11   18 1
  21   12   13 ar
  22   12   17 ar
  23   13   14 ar
  24   13   40 1
  25   14   15 ar
  26   14   41 1
  27   15   16 ar
  28   15   33 1
  29   16   17 ar
  30   16   42 1
  31   17   43 1
  32   18   19 1
  33   18   44 1
  34   18   45 1
  35   19   20 am
  36   19   21 2
  37   20   22 1
  38   20   23 1
  39   22   26 1
  40   22   46 1
  41   22   47 1
  42   23   24 1
  43   23   48 1
  44   23   49 1
  45   24   25 1
  46   24   50 1
  47   24   51 1
  48   25   26 1
  49   25   27 1
  50   26   52 1
  51   26   53 1
  52   27   28 ar
  53   27   29 ar
  54   28   32 ar
  55   29   30 ar
  56   30   31 ar
  57   30   54 1
  58   31   32 ar
  59   31   55 1
  60   32   56 1

#	End of record

