#	Name: ASD03331604
#	Creating user name:	WinNT
#	Creation time:	15. 06. 2019 20:39

#	Modifying user name:	WinNT
#	Modification time:	15. 06. 2019 20:39

#	Program:	/corina/corina34_cracker 3.40 0067  02.08.2006

@<TRIPOS>MOLECULE
ASD03331604
  60   62    0    0    0
SMALL
NO_CHARGES


@<TRIPOS>ATOM
   1 C1            -0.9136     1.2260    -1.6406 C.ar    
   2 C2            -0.6971    -0.2300    -1.4946 C.2     
   3 N3            -1.6713    -1.1742    -1.3992 N.pl3   
   4 C4            -1.0665    -2.3800    -1.2800 C.2     
   5 C5             0.2738    -2.1653    -1.3017 C.2     
   6 N6             0.4701    -0.8333    -1.4406 N.2     
   7 C7             1.3231    -3.1947    -1.1982 C.2     
   8 N8             2.6224    -2.8385    -1.2340 N.am    
   9 C9            -3.1341    -0.9758    -1.4161 C.3     
  10 C10           -3.6605    -1.4158    -0.0403 C.3     
  11 C11           -3.7741    -2.9187     0.0373 C.3     
  12 N12           -2.5355    -3.6622     0.1281 N.3     
  13 C13           -1.7998    -3.7023    -1.1502 C.3     
  14 C14           -2.0228     1.8313    -1.0492 C.ar    
  15 O15            1.0166    -4.3657    -1.0804 O.2     
  16 C16            3.6656    -3.8619    -1.1312 C.3     
  17 C17           -2.7717    -5.0179     0.6422 C.3     
  18 C18           -4.6243    -3.2657     1.2611 C.3     
  19 C19            3.9405    -4.4510    -2.5162 C.3     
  20 C20            4.9467    -3.2309    -0.5819 C.3     
  21 C21            4.2531    -3.3204    -3.4985 C.3     
  22 C22            5.1355    -5.4031    -2.4374 C.3     
  23 C23            2.7077    -5.2186    -2.9977 C.3     
  24 O24            5.4144    -2.2333    -1.4920 O.3     
  25 C25           -2.2200     3.1913    -1.1888 C.ar    
  26 C26           -1.3170     3.9538    -1.9161 C.ar    
  27 C27           -0.2149     3.3556    -2.5050 C.ar    
  28 C28           -0.0059     1.9993    -2.3654 C.ar    
  29 F29           -1.5136     5.2837    -2.0508 F       
  30 F30           -3.2934     3.7797    -0.6170 F       
  31 H31            2.8669    -1.9045    -1.3280 H       
  32 H32           -3.3651     0.0761    -1.5841 H       
  33 H33           -3.5835    -1.5864    -2.1993 H       
  34 H34           -2.9759    -1.0678     0.7333 H       
  35 H35           -4.6426    -0.9732     0.1259 H       
  36 H36           -4.3088    -3.2621    -0.8482 H       
  37 H37           -2.4985    -3.8228    -1.9781 H       
  38 H38           -1.0849    -4.5251    -1.1426 H       
  39 H39           -2.7259     1.2377    -0.4838 H       
  40 H40            3.3333    -4.6531    -0.4592 H       
  41 H41           -3.5466    -5.5020     0.0479 H       
  42 H42           -1.8501    -5.5965     0.5782 H       
  43 H43           -3.0936    -4.9611     1.6821 H       
  44 H44           -5.5588    -2.7057     1.2249 H       
  45 H45           -4.8408    -4.3340     1.2620 H       
  46 H46           -4.0792    -3.0047     2.1682 H       
  47 H47            4.7402    -2.7724     0.3851 H       
  48 H48            5.7091    -4.0008    -0.4636 H       
  49 H49            5.2657    -2.9568    -3.3237 H       
  50 H50            4.1720    -3.6933    -4.5195 H       
  51 H51            3.5442    -2.5055    -3.3520 H       
  52 H52            4.9129    -6.2086    -1.7376 H       
  53 H53            5.3313    -5.8228    -3.4241 H       
  54 H54            6.0138    -4.8562    -2.0944 H       
  55 H55            1.8563    -4.5403    -3.0538 H       
  56 H56            2.9035    -5.6383    -3.9844 H       
  57 H57            2.4850    -6.0241    -2.2979 H       
  58 H58            6.2254    -1.7904    -1.2072 H       
  59 H59            0.4846     3.9532    -3.0706 H       
  60 H60            0.8538     1.5347    -2.8251 H       
@<TRIPOS>BOND
   1    1    2 1
   2    1   14 ar
   3    1   28 ar
   4    2    3 1
   5    2    6 2
   6    3    4 1
   7    3    9 1
   8    4    5 2
   9    4   13 1
  10    5    6 1
  11    5    7 1
  12    7    8 am
  13    7   15 2
  14    8   16 1
  15    8   31 1
  16    9   10 1
  17    9   32 1
  18    9   33 1
  19   10   11 1
  20   10   34 1
  21   10   35 1
  22   11   12 1
  23   11   18 1
  24   11   36 1
  25   12   13 1
  26   12   17 1
  27   13   37 1
  28   13   38 1
  29   14   25 ar
  30   14   39 1
  31   16   19 1
  32   16   20 1
  33   16   40 1
  34   17   41 1
  35   17   42 1
  36   17   43 1
  37   18   44 1
  38   18   45 1
  39   18   46 1
  40   19   21 1
  41   19   22 1
  42   19   23 1
  43   20   24 1
  44   20   47 1
  45   20   48 1
  46   21   49 1
  47   21   50 1
  48   21   51 1
  49   22   52 1
  50   22   53 1
  51   22   54 1
  52   23   55 1
  53   23   56 1
  54   23   57 1
  55   24   58 1
  56   25   26 ar
  57   25   30 1
  58   26   27 ar
  59   26   29 1
  60   27   28 ar
  61   27   59 1
  62   28   60 1

#	End of record

