#	Name: ASD01885015
#	Creating user name:	WinNT
#	Creation time:	15. 06. 2019 19:49

#	Modifying user name:	WinNT
#	Modification time:	15. 06. 2019 19:49

#	Program:	/corina/corina34_cracker 3.40 0067  02.08.2006

@<TRIPOS>MOLECULE
ASD01885015
  61   64    0    0    0
SMALL
NO_CHARGES


@<TRIPOS>ATOM
   1 C1            -0.4390     1.2688     0.2462 C.3     
   2 C2            -0.1571    -0.2337     0.1833 C.3     
   3 C3             0.4784    -0.5779    -1.1636 C.3     
   4 N4             1.0606    -1.9153    -1.1831 N.am    
   5 C5             1.7471    -2.4090    -0.1246 C.2     
   6 O6             2.4016    -3.4317    -0.2047 O.2     
   7 C7             1.6583    -1.6423     1.1239 C.2     
   8 C8             2.3499    -1.7468     2.3113 C.2     
   9 C9             1.8600    -0.7345     3.1629 C.2     
  10 N10            0.9272    -0.0647     2.5290 N.2     
  11 N11            0.7637    -0.6040     1.2600 N.pl3   
  12 C12            3.4024    -2.7309     2.6314 C.2     
  13 C13            3.0320    -3.9662     2.8765 C.2     
  14 C14            3.9955    -5.0641     3.2325 C.3     
  15 N15            5.3687    -4.5960     2.9967 N.am    
  16 C16            5.7032    -3.2310     3.4380 C.3     
  17 C17            4.8244    -2.2542     2.6489 C.3     
  18 C18            6.2853    -5.3843     2.4009 C.2     
  19 O19            7.4138    -4.9726     2.2179 O.2     
  20 O20            5.9506    -6.6280     2.0085 O.3     
  21 C21            6.9883    -7.4207     1.3738 C.3     
  22 C22            8.1599    -7.5964     2.3420 C.3     
  23 C23            6.4250    -8.7933     1.0003 C.3     
  24 C24            7.4737    -6.7076     0.1101 C.3     
  25 C25            0.9057    -2.7086    -2.3240 C.ar    
  26 C26            0.1253    -3.8565    -2.2728 C.ar    
  27 C27           -0.0261    -4.6377    -3.4016 C.ar    
  28 C28            0.5983    -4.2781    -4.5820 C.ar    
  29 C29            1.3763    -3.1361    -4.6362 C.ar    
  30 C30            1.5271    -2.3475    -3.5125 C.ar    
  31 C31            0.4309    -5.1329    -5.8118 C.3     
  32 F32           -0.6807    -4.6923    -6.5381 F       
  33 F33            1.5771    -5.0342    -6.6078 F       
  34 F34            0.2408    -6.4656    -5.4310 F       
  35 H35            0.4949     1.8189     0.1304 H       
  36 H36           -1.1244     1.5438    -0.5555 H       
  37 H37           -0.8883     1.5143     1.2085 H       
  38 H38           -1.0909    -0.7843     0.2974 H       
  39 H39           -0.2844    -0.5144    -1.9396 H       
  40 H40            1.2603     0.1499    -1.3805 H       
  41 H41            2.1976    -0.5424     4.1706 H       
  42 H42            1.9806    -4.2062     2.8200 H       
  43 H43            3.8757    -5.3273     4.2834 H       
  44 H44            3.7970    -5.9382     2.6122 H       
  45 H45            5.5064    -3.1301     4.5053 H       
  46 H46            6.7543    -3.0253     3.2353 H       
  47 H47            5.1920    -2.1788     1.6255 H       
  48 H48            4.8695    -1.2715     3.1184 H       
  49 H49            7.8142    -8.1045     3.2423 H       
  50 H50            8.9389    -8.1915     1.8655 H       
  51 H51            8.5612    -6.6186     2.6081 H       
  52 H52            5.5904    -8.6681     0.3105 H       
  53 H53            7.2041    -9.3884     0.5238 H       
  54 H54            6.0793    -9.3013     1.9006 H       
  55 H55            7.8750    -5.7297     0.3761 H       
  56 H56            8.2527    -7.3026    -0.3664 H       
  57 H57            6.6390    -6.5824    -0.5797 H       
  58 H58           -0.3623    -4.1381    -1.3512 H       
  59 H59           -0.6324    -5.5305    -3.3624 H       
  60 H60            1.8632    -2.8585    -5.5594 H       
  61 H61            2.1310    -1.4532    -3.5568 H       
@<TRIPOS>BOND
   1    1    2 1
   2    1   35 1
   3    1   36 1
   4    1   37 1
   5    2   11 1
   6    2    3 1
   7    2   38 1
   8    3    4 1
   9    3   39 1
  10    3   40 1
  11    4    5 am
  12    4   25 1
  13    5    6 2
  14    5    7 1
  15    7   11 1
  16    7    8 2
  17    8    9 1
  18    8   12 1
  19    9   10 2
  20    9   41 1
  21   10   11 1
  22   12   17 1
  23   12   13 2
  24   13   14 1
  25   13   42 1
  26   14   15 1
  27   14   43 1
  28   14   44 1
  29   15   16 1
  30   15   18 am
  31   16   17 1
  32   16   45 1
  33   16   46 1
  34   17   47 1
  35   17   48 1
  36   18   19 2
  37   18   20 1
  38   20   21 1
  39   21   22 1
  40   21   23 1
  41   21   24 1
  42   22   49 1
  43   22   50 1
  44   22   51 1
  45   23   52 1
  46   23   53 1
  47   23   54 1
  48   24   55 1
  49   24   56 1
  50   24   57 1
  51   25   30 ar
  52   25   26 ar
  53   26   27 ar
  54   26   58 1
  55   27   28 ar
  56   27   59 1
  57   28   29 ar
  58   28   31 1
  59   29   30 ar
  60   29   60 1
  61   30   61 1
  62   31   32 1
  63   31   33 1
  64   31   34 1

#	End of record

