#	Name: ASD01140111
#	Creating user name:	WinNT
#	Creation time:	15. 06. 2019 18:59

#	Modifying user name:	WinNT
#	Modification time:	15. 06. 2019 18:59

#	Program:	/corina/corina34_cracker 3.40 0067  02.08.2006

@<TRIPOS>MOLECULE
ASD01140111
  44   45    0    0    0
SMALL
NO_CHARGES


@<TRIPOS>ATOM
   1 C1            -0.0207     1.7069    -0.1998 C.3     
   2 C2             0.0172     0.1769     0.0018 C.3     
   3 C3             1.4373    -0.2022    -0.4730 C.3     
   4 C4             2.0612     1.1107    -0.9003 C.2     
   5 O5             1.3776     2.1096    -0.3124 O.3     
   6 O6             3.0081     1.2385    -1.6399 O.2     
   7 N7            -0.1647    -0.1639     1.4149 N.am    
   8 C8             2.2355    -0.8234     0.6751 C.3     
   9 C9             1.3638    -1.1683    -1.6571 C.3     
  10 C10           -1.4065    -0.3003     1.9208 C.2     
  11 O11           -2.3755    -0.1404     1.2046 O.2     
  12 C12            3.5988    -1.2857     0.1569 C.3     
  13 C13            4.4482    -1.7820     1.3286 C.3     
  14 C14            0.7151    -2.4787    -1.2067 C.3     
  15 C15            0.7361    -3.4816    -2.3620 C.3     
  16 C16           -1.5901    -0.6443     3.3469 C.ar    
  17 C17           -2.8747    -0.7862     3.8740 C.ar    
  18 C18           -3.0390    -1.1078     5.2054 C.ar    
  19 C19           -1.9339    -1.2891     6.0180 C.ar    
  20 C20           -0.6577    -1.1499     5.5018 C.ar    
  21 C21           -0.4794    -0.8342     4.1707 C.ar    
  22 H22           -0.5609     1.9552    -1.1134 H       
  23 H23           -0.4859     2.1905     0.6593 H       
  24 H24           -0.7381    -0.3116    -0.6138 H       
  25 H25            0.6085    -0.2915     1.9865 H       
  26 H26            2.3780    -0.0821     1.4614 H       
  27 H27            1.6903    -1.6780     1.0759 H       
  28 H28            0.7675    -0.7225    -2.4532 H       
  29 H29            2.3699    -1.3687    -2.0255 H       
  30 H30            3.4597    -2.0952    -0.5597 H       
  31 H31            4.1040    -0.4518    -0.3306 H       
  32 H32            3.9431    -2.6159     1.8160 H       
  33 H33            5.4195    -2.1114     0.9594 H       
  34 H34            4.5873    -0.9725     2.0451 H       
  35 H35            1.2691    -2.8866    -0.3613 H       
  36 H36           -0.3161    -2.2898    -0.9082 H       
  37 H37            0.1821    -3.0737    -3.2074 H       
  38 H38            1.7673    -3.6705    -2.6604 H       
  39 H39            0.2739    -4.4152    -2.0411 H       
  40 H40           -3.7381    -0.6442     3.2410 H       
  41 H41           -4.0324    -1.2179     5.6145 H       
  42 H42           -2.0680    -1.5400     7.0598 H       
  43 H43            0.2007    -1.2927     6.1413 H       
  44 H44            0.5172    -0.7261     3.7689 H       
@<TRIPOS>BOND
   1    1    2 1
   2    1    5 1
   3    1   22 1
   4    1   23 1
   5    2    3 1
   6    2    7 1
   7    2   24 1
   8    3    4 1
   9    3    9 1
  10    3    8 1
  11    4    5 1
  12    4    6 2
  13    7   10 am
  14    7   25 1
  15    8   12 1
  16    8   26 1
  17    8   27 1
  18    9   14 1
  19    9   28 1
  20    9   29 1
  21   10   11 2
  22   10   16 1
  23   12   13 1
  24   12   30 1
  25   12   31 1
  26   13   32 1
  27   13   33 1
  28   13   34 1
  29   14   15 1
  30   14   35 1
  31   14   36 1
  32   15   37 1
  33   15   38 1
  34   15   39 1
  35   16   17 ar
  36   16   21 ar
  37   17   18 ar
  38   17   40 1
  39   18   19 ar
  40   18   41 1
  41   19   20 ar
  42   19   42 1
  43   20   21 ar
  44   20   43 1
  45   21   44 1

#	End of record

