#	Name: ASD09440001
#	Creating user name:	WinNT
#	Creation time:	15. 06. 2019 21:22

#	Modifying user name:	WinNT
#	Modification time:	15. 06. 2019 21:22

#	Program:	/corina/corina34_cracker 3.40 0067  02.08.2006

@<TRIPOS>MOLECULE
ASD09440001
  57   59    0    0    0
SMALL
NO_CHARGES


@<TRIPOS>ATOM
   1 C1             1.2653    -3.5243     4.9239 C.3     
   2 O2             1.3752    -2.1910     4.4217 O.3     
   3 P3             2.0460    -2.0918     2.8411 P.3     
   4 O4             0.5542    -2.6288     2.1743 O.3     
   5 P5            -0.6482    -1.4031     2.0729 P.3     
   6 O6            -0.9413    -1.8263     0.4318 O.3     
   7 O7             2.3313    -0.4108     3.0676 O.3     
   8 O8            -1.5361    -2.1702     3.3306 O.3     
   9 O9            -1.8507    -0.1775     1.9716 O.3     
  10 O10            2.7169    -1.9927     1.2604 O.3     
  11 O11           -0.5771    -2.9836     6.4334 O.3     
  12 C12            0.7761    -3.4848     6.3731 C.3     
  13 C13            0.6936    -4.9146     6.9520 C.3     
  14 C14           -0.5666    -4.8857     7.8456 C.3     
  15 C15           -1.0964    -3.4419     7.7008 C.3     
  16 O16            0.5411    -5.8719     5.9020 O.3     
  17 P17            1.5985    -7.0562     5.6348 P.3     
  18 O18            2.9508    -6.4804     5.4612 O.2     
  19 O19            1.6020    -8.0656     6.8891 O.3     
  20 O20            1.1813    -7.8576     4.3022 O.3     
  21 O21           -1.5358    -5.8243     7.3748 O.3     
  22 N22            0.1021    -2.2465    10.8742 N.2     
  23 C23           -0.8515    -2.7529    10.1463 C.2     
  24 N24           -0.5939    -2.6025     8.7913 N.pl3   
  25 C25            0.2177    -1.5212     8.6809 C.2     
  26 N26            0.4537    -0.4802     7.9545 N.2     
  27 C27            1.1504     0.5594     8.4351 C.2     
  28 N28            1.6824     0.6200     9.6442 N.2     
  29 C29            1.6862    -0.4292    10.4748 C.2     
  30 C30            1.0913    -1.7063     9.9323 C.3     
  31 O31            2.1421    -0.3582    11.5995 O.2     
  32 N32            1.3245     1.6386     7.6127 N.pl3   
  33 P33            1.9405    -8.9037     3.3424 P.3     
  34 O34            2.6473    -9.9079     4.1684 O.2     
  35 O35            0.8661    -9.6444     2.3996 O.3     
  36 O36            3.0055    -8.1166     2.4267 O.3     
  37 H37            0.5548    -4.0842     4.3158 H       
  38 H38            2.2404    -4.0096     4.8827 H       
  39 H39            3.0772    -3.0696     3.2174 H       
  40 H40            0.3610    -0.3858     2.4008 H       
  41 H41           -0.8434    -1.0902    -0.1877 H       
  42 H42            1.7868    -0.0091     3.7584 H       
  43 H43           -2.3567    -1.7162     3.5661 H       
  44 H44           -1.9752     0.3201     2.7914 H       
  45 H45            2.9383    -2.8504     0.8726 H       
  46 H46            1.4374    -2.8657     6.9793 H       
  47 H47            1.5790    -5.1372     7.5475 H       
  48 H48           -0.3041    -5.0941     8.8828 H       
  49 H49           -2.1863    -3.4371     7.6883 H       
  50 H50            0.7461    -8.4810     7.0621 H       
  51 H51           -2.3477    -5.8479     7.8995 H       
  52 H52           -1.7331    -3.2307    10.5475 H       
  53 H53            1.8714    -2.4439     9.7439 H       
  54 H54            0.9495     1.6322     6.7181 H       
  55 H55            1.8228     2.4103     7.9241 H       
  56 H56            1.2539   -10.2905     1.7935 H       
  57 H57            2.6116    -7.4412     1.8576 H       
@<TRIPOS>BOND
   1    1    2 1
   2    1   12 1
   3    1   37 1
   4    1   38 1
   5    2    3 1
   6    3    4 1
   7    3    7 1
   8    3   10 1
   9    3   39 1
  10    4    5 1
  11    5    6 1
  12    5    8 1
  13    5    9 1
  14    5   40 1
  15    6   41 1
  16    7   42 1
  17    8   43 1
  18    9   44 1
  19   10   45 1
  20   11   12 1
  21   11   15 1
  22   12   13 1
  23   12   46 1
  24   13   14 1
  25   13   16 1
  26   13   47 1
  27   14   15 1
  28   14   21 1
  29   14   48 1
  30   15   24 1
  31   15   49 1
  32   16   17 1
  33   17   18 2
  34   17   19 1
  35   17   20 1
  36   19   50 1
  37   20   33 1
  38   21   51 1
  39   22   23 2
  40   22   30 1
  41   23   24 1
  42   23   52 1
  43   24   25 1
  44   25   26 2
  45   25   30 1
  46   26   27 1
  47   27   28 2
  48   27   32 1
  49   28   29 1
  50   29   30 1
  51   29   31 2
  52   30   53 1
  53   32   54 1
  54   32   55 1
  55   33   34 2
  56   33   35 1
  57   33   36 1
  58   35   56 1
  59   36   57 1

#	End of record

