#	Name: ASD04840010
#	Creating user name:	WinNT
#	Creation time:	15. 06. 2019 20:52

#	Modifying user name:	WinNT
#	Modification time:	15. 06. 2019 20:52

#	Program:	/corina/corina34_cracker 3.40 0067  02.08.2006

@<TRIPOS>MOLECULE
ASD04840010
  46   49    0    0    0
SMALL
NO_CHARGES


@<TRIPOS>ATOM
   1 C1            -0.0187     1.5258     0.0104 C.3     
   2 C2             0.0021    -0.0041     0.0020 C.3     
   3 O3             0.7043    -0.4851     1.1784 O.3     
   4 C4             0.8122    -1.8204     1.3231 C.2     
   5 O5             0.3325    -2.5626     0.4891 O.2     
   6 C6             1.5120    -2.3808     2.4931 C.ar    
   7 C7             2.0652    -1.5312     3.4546 C.ar    
   8 C8             2.7178    -2.0617     4.5463 C.ar    
   9 C9             2.8288    -3.4344     4.6953 C.ar    
  10 C10            2.2872    -4.2858     3.7525 C.ar    
  11 C11            1.6216    -3.7700     2.6508 C.ar    
  12 O12            1.0892    -4.6050     1.7239 O.3     
  13 C13            1.2510    -6.0075     1.9451 C.3     
  14 C14            0.5999    -6.7717     0.8212 C.ar    
  15 C15           -0.0237    -6.0717    -0.2031 C.ar    
  16 C16           -0.6232    -6.7618    -1.2377 C.ar    
  17 Cl17          -1.4112    -5.9186    -2.5345 Cl      
  18 C18           -0.5773    -8.1664    -1.2115 C.ar    
  19 C19            0.0763    -8.8053    -0.1345 C.ar    
  20 N20            0.6400    -8.0855     0.8302 N.ar    
  21 C21            0.1196   -10.2714    -0.1151 C.ar    
  22 C22            0.7485   -10.9673     0.9189 C.ar    
  23 C23            0.7673   -12.3331     0.9016 C.ar    
  24 C24            0.1671   -13.0385    -0.1343 C.ar    
  25 C25           -0.4550   -12.3862    -1.1586 C.ar    
  26 C26           -0.4919   -10.9848    -1.1705 C.ar    
  27 C27           -1.1294   -10.2829    -2.2199 C.ar    
  28 C28           -1.1709    -8.9349    -2.2379 C.ar    
  29 H29            1.0039     1.9031     0.0027 H       
  30 H30           -0.5459     1.8868    -0.8726 H       
  31 H31           -0.5289     1.8773     0.9072 H       
  32 H32           -1.0205    -0.3814     0.0098 H       
  33 H33            0.5123    -0.3556    -0.8948 H       
  34 H34            1.9817    -0.4603     3.3422 H       
  35 H35            3.1450    -1.4042     5.2889 H       
  36 H36            3.3423    -3.8412     5.5539 H       
  37 H37            2.3783    -5.3548     3.8757 H       
  38 H38            2.3132    -6.2494     1.9815 H       
  39 H39            0.7831    -6.2826     2.8904 H       
  40 H40           -0.0399    -4.9919    -0.1904 H       
  41 H41            1.2182   -10.4284     1.7285 H       
  42 H42            1.2543   -12.8707     1.7018 H       
  43 H43            0.1938   -14.1181    -0.1288 H       
  44 H44           -0.9170   -12.9474    -1.9573 H       
  45 H45           -1.5939   -10.8374    -3.0219 H       
  46 H46           -1.6668    -8.4322    -3.0550 H       
@<TRIPOS>BOND
   1    1    2 1
   2    1   29 1
   3    1   30 1
   4    1   31 1
   5    2    3 1
   6    2   32 1
   7    2   33 1
   8    3    4 1
   9    4    5 2
  10    4    6 1
  11    6    7 ar
  12    6   11 ar
  13    7    8 ar
  14    7   34 1
  15    8    9 ar
  16    8   35 1
  17    9   10 ar
  18    9   36 1
  19   10   11 ar
  20   10   37 1
  21   11   12 1
  22   12   13 1
  23   13   14 1
  24   13   38 1
  25   13   39 1
  26   14   15 ar
  27   14   20 ar
  28   15   16 ar
  29   15   40 1
  30   16   17 1
  31   16   18 ar
  32   18   19 ar
  33   18   28 ar
  34   19   20 ar
  35   19   21 ar
  36   21   22 ar
  37   21   26 ar
  38   22   23 ar
  39   22   41 1
  40   23   24 ar
  41   23   42 1
  42   24   25 ar
  43   24   43 1
  44   25   26 ar
  45   25   44 1
  46   26   27 ar
  47   27   28 ar
  48   27   45 1
  49   28   46 1

#	End of record

