#	Name: ASD01885794
#	Creating user name:	WinNT
#	Creation time:	15. 06. 2019 19:50

#	Modifying user name:	WinNT
#	Modification time:	15. 06. 2019 19:50

#	Program:	/corina/corina34_cracker 3.40 0067  02.08.2006

@<TRIPOS>MOLECULE
ASD01885794
  64   66    0    0    0
SMALL
NO_CHARGES


@<TRIPOS>ATOM
   1 C1            -0.0160     1.3294     0.0094 C.ar    
   2 C2            -1.2520     2.0240     0.0189 C.ar    
   3 C3            -2.4596     1.2809     0.0205 C.ar    
   4 C4            -2.3700    -0.1047     0.0125 C.ar    
   5 C5            -1.1108    -0.7138     0.0033 C.ar    
   6 N6             0.0021    -0.0041     0.0020 N.ar    
   7 C7             1.1364     3.4285     0.0097 C.ar    
   8 C8            -0.0805     4.1065     0.0258 C.ar    
   9 C9            -1.2606     3.4246     0.0271 C.ar    
  10 C10           -3.7749     1.9611     0.0308 C.2     
  11 C11           -1.0240    -2.1941    -0.0047 C.2     
  12 C12            2.4227     4.2136     0.0097 C.3     
  13 N13            2.8503     4.4530     1.3945 N.3     
  14 C14            1.1821     2.0685     0.0019 C.ar    
  15 N15            0.1806    -2.7985    -0.0130 N.am    
  16 O16           -2.0389    -2.8621    -0.0037 O.2     
  17 C17            3.2099     3.1926     2.0603 C.3     
  18 C18            3.7050     3.4934     3.4774 C.3     
  19 O19            2.6929     4.2115     4.1882 O.3     
  20 C20            2.3189     5.4448     3.5680 C.3     
  21 C21            1.8097     5.1637     2.1518 C.3     
  22 C22            4.0050     2.1803     4.2033 C.3     
  23 C23           -4.1757     2.9887     0.9094 C.2     
  24 N24           -5.3995     3.3279     0.6043 N.2     
  25 N25           -5.8265     2.5392    -0.4706 N.pl3   
  26 C26           -4.8207     1.7119    -0.8135 C.2     
  27 F27            4.9915     1.4762     3.5047 F       
  28 F28            4.4573     2.4561     5.4981 F       
  29 F29            2.8403     1.4082     4.2707 F       
  30 C30           -7.1405     2.6056    -1.1149 C.3     
  31 C31            1.2117     6.1127     4.3858 C.3     
  32 C32            3.5344     6.3714     3.4994 C.3     
  33 H33           -3.2660    -0.7077     0.0137 H       
  34 H34           -0.0889     5.1864     0.0378 H       
  35 H35           -2.1976     3.9616     0.0341 H       
  36 H36            3.1929     3.6491    -0.5159 H       
  37 H37            2.2657     5.1683    -0.4923 H       
  38 H38            2.1338     1.5582    -0.0097 H       
  39 H39            0.9908    -2.2651    -0.0139 H       
  40 H40            0.2373    -3.7668    -0.0182 H       
  41 H41            2.3347     2.5448     2.1104 H       
  42 H42            3.9995     2.6956     1.4967 H       
  43 H43            4.6117     4.0961     3.4259 H       
  44 H44            1.5773     6.1057     1.6550 H       
  45 H45            0.9121     4.5475     2.2033 H       
  46 H46           -3.5757     3.4197     1.6972 H       
  47 H47           -4.8393     0.9798    -1.6073 H       
  48 H48           -7.1080     3.3249    -1.9332 H       
  49 H49           -7.4038     1.6226    -1.5054 H       
  50 H50           -7.8875     2.9188    -0.3854 H       
  51 H51            1.5735     6.3090     5.3951 H       
  52 H52            0.9271     7.0525     3.9127 H       
  53 H53            0.3456     5.4525     4.4323 H       
  54 H54            4.3217     5.8953     2.9150 H       
  55 H55            3.2487     7.3111     3.0267 H       
  56 H56            3.8988     6.5680     4.5077 H       
  57 C57           10.9934    14.2182    11.4033 C.3     
  58 C58           11.0141    12.6883    11.3949 C.3     
  59 H59           12.0160    14.5955    11.3956 H       
  60 H60           10.4662    14.5793    10.5202 H       
  61 H61           10.4832    14.5697    12.3001 H       
  62 H62           11.5413    12.3273    12.2779 H       
  63 H63            9.9915    12.3111    11.4026 H       
  64 H64           11.5243    12.3368    10.4981 H       
@<TRIPOS>BOND
   1    1    6 ar
   2    1   14 ar
   3    1    2 ar
   4    2    3 ar
   5    2    9 ar
   6    3   10 1
   7    3    4 ar
   8    4    5 ar
   9    4   33 1
  10    5   11 1
  11    5    6 ar
  12    7   12 1
  13    7    8 ar
  14    7   14 ar
  15    8    9 ar
  16    8   34 1
  17    9   35 1
  18   10   23 1
  19   10   26 2
  20   11   15 am
  21   11   16 2
  22   12   13 1
  23   12   36 1
  24   12   37 1
  25   13   17 1
  26   13   21 1
  27   14   38 1
  28   15   39 1
  29   15   40 1
  30   17   18 1
  31   17   41 1
  32   17   42 1
  33   18   22 1
  34   18   19 1
  35   18   43 1
  36   19   20 1
  37   20   21 1
  38   20   31 1
  39   20   32 1
  40   21   44 1
  41   21   45 1
  42   22   27 1
  43   22   28 1
  44   22   29 1
  45   23   24 2
  46   23   46 1
  47   24   25 1
  48   25   26 1
  49   25   30 1
  50   26   47 1
  51   30   48 1
  52   30   49 1
  53   30   50 1
  54   31   51 1
  55   31   52 1
  56   31   53 1
  57   32   54 1
  58   32   55 1
  59   32   56 1
  60   57   58 1
  61   57   59 1
  62   57   60 1
  63   57   61 1
  64   58   62 1
  65   58   63 1
  66   58   64 1

#	End of record

