#	Name: ASD06170167
#	Creating user name:	WinNT
#	Creation time:	15. 06. 2019 21:05

#	Modifying user name:	WinNT
#	Modification time:	15. 06. 2019 21:05

#	Program:	/corina/corina34_cracker 3.40 0067  02.08.2006

@<TRIPOS>MOLECULE
ASD06170167
  68   72    0    0    0
SMALL
NO_CHARGES


@<TRIPOS>ATOM
   1 N1             0.0481     1.5804    -0.0765 N.pl3   
   2 N2            -0.1573     0.1995    -0.0030 N.am    
   3 C3             1.0432    -0.4088     0.0943 C.2     
   4 C4             2.0553     0.6593     0.0804 C.2     
   5 C5             1.3662     1.8515    -0.0267 C.2     
   6 C6             3.5110     0.4908     0.1642 C.2     
   7 O7             4.2387     1.4659     0.1420 O.2     
   8 N8             4.0418    -0.7439     0.2659 N.am    
   9 C9            -1.0130     2.5833    -0.1964 C.3     
  10 C10           -1.4110     3.0737     1.1972 C.3     
  11 C11           -2.5192     4.1212     1.0720 C.3     
  12 C12           -1.3990    -0.4438    -0.0264 C.ar    
  13 C13           -2.3256    -0.1323    -1.0130 C.ar    
  14 C14           -3.5507    -0.7697    -1.0335 C.ar    
  15 C15           -3.8552    -1.7170    -0.0732 C.ar    
  16 C16           -2.9350    -2.0290     0.9107 C.ar    
  17 C17           -1.7059    -1.3995     0.9335 C.ar    
  18 O18            1.2484    -1.6053     0.1779 O.2     
  19 C19            5.4302    -0.9117     0.2508 C.ar    
  20 C20            6.2521     0.0347     0.8490 C.ar    
  21 C21            7.6227    -0.1342     0.8329 C.ar    
  22 C22            8.1770    -1.2440     0.2219 C.ar    
  23 C23            7.3615    -2.1879    -0.3750 C.ar    
  24 C24            5.9898    -2.0279    -0.3573 C.ar    
  25 C25            9.6730    -1.4250     0.2062 C.3     
  26 N26           10.8831    -3.5954     3.6817 N.ar    
  27 C27           10.9104    -2.2845     3.6732 C.ar    
  28 C28           10.5212    -1.5510     2.5551 C.ar    
  29 C29           10.0984    -2.1975     1.4282 C.ar    
  30 C30           10.0706    -3.6044     1.4399 C.ar    
  31 C31            9.6478    -4.3343     0.3169 C.ar    
  32 C32            9.6329    -5.6936     0.3598 C.ar    
  33 C33           10.0339    -6.3785     1.5113 C.ar    
  34 C34           10.4530    -5.6930     2.6285 C.ar    
  35 C35           10.4794    -4.2892     2.6119 C.ar    
  36 O36           10.0089    -7.7365     1.5274 O.3     
  37 C37            9.5637    -8.3912     0.3378 C.3     
  38 C38            1.9852     3.2245    -0.0799 C.3     
  39 H39            3.4608    -1.5162     0.3494 H       
  40 H40           -0.6526     3.4246    -0.7884 H       
  41 H41           -1.8794     2.1389    -0.6864 H       
  42 H42           -1.7714     2.2324     1.7892 H       
  43 H43           -0.5447     3.5181     1.6871 H       
  44 H44           -3.3856     3.6768     0.5820 H       
  45 H45           -2.8028     4.4705     2.0648 H       
  46 H46           -2.1588     4.9624     0.4800 H       
  47 H47           -2.0886     0.6077    -1.7630 H       
  48 H48           -4.2718    -0.5277    -1.8002 H       
  49 H49           -4.8139    -2.2139    -0.0915 H       
  50 H50           -3.1760    -2.7691     1.6595 H       
  51 H51           -0.9859    -1.6469     1.6995 H       
  52 H52            5.8199     0.9019     1.3260 H       
  53 H53            8.2624     0.6016     1.2975 H       
  54 H54            7.7975    -3.0534    -0.8516 H       
  55 H55            5.3532    -2.7677    -0.8198 H       
  56 H56            9.9632    -1.9738    -0.6898 H       
  57 H57           10.1572    -0.4485     0.2069 H       
  58 H58           11.2423    -1.7598     4.5568 H       
  59 H59           10.5543    -0.4718     2.5785 H       
  60 H60            9.3350    -3.8175    -0.5783 H       
  61 H61            9.3071    -6.2510    -0.5060 H       
  62 H62           10.7606    -6.2317     3.5127 H       
  63 H63            8.5429    -8.0821     0.1132 H       
  64 H64           10.2163    -8.1201    -0.4921 H       
  65 H65            9.5924    -9.4709     0.4848 H       
  66 H66            2.0827     3.6185     0.9317 H       
  67 H67            2.9705     3.1611    -0.5418 H       
  68 H68            1.3501     3.8868    -0.6682 H       
@<TRIPOS>BOND
   1    1    2 1
   2    1    5 1
   3    1    9 1
   4    2    3 am
   5    2   12 1
   6    3    4 1
   7    3   18 2
   8    4    5 2
   9    4    6 1
  10    5   38 1
  11    6    7 2
  12    6    8 am
  13    8   19 1
  14    8   39 1
  15    9   10 1
  16    9   40 1
  17    9   41 1
  18   10   11 1
  19   10   42 1
  20   10   43 1
  21   11   44 1
  22   11   45 1
  23   11   46 1
  24   12   13 ar
  25   12   17 ar
  26   13   14 ar
  27   13   47 1
  28   14   15 ar
  29   14   48 1
  30   15   16 ar
  31   15   49 1
  32   16   17 ar
  33   16   50 1
  34   17   51 1
  35   19   20 ar
  36   19   24 ar
  37   20   21 ar
  38   20   52 1
  39   21   22 ar
  40   21   53 1
  41   22   23 ar
  42   22   25 1
  43   23   24 ar
  44   23   54 1
  45   24   55 1
  46   25   29 1
  47   25   56 1
  48   25   57 1
  49   26   27 ar
  50   26   35 ar
  51   27   28 ar
  52   27   58 1
  53   28   29 ar
  54   28   59 1
  55   29   30 ar
  56   30   31 ar
  57   30   35 ar
  58   31   32 ar
  59   31   60 1
  60   32   33 ar
  61   32   61 1
  62   33   34 ar
  63   33   36 1
  64   34   35 ar
  65   34   62 1
  66   36   37 1
  67   37   63 1
  68   37   64 1
  69   37   65 1
  70   38   66 1
  71   38   67 1
  72   38   68 1

#	End of record

