#	Name: ASD01200217
#	Creating user name:	WinNT
#	Creation time:	15. 06. 2019 19:08

#	Modifying user name:	WinNT
#	Modification time:	15. 06. 2019 19:08

#	Program:	/corina/corina34_cracker 3.40 0067  02.08.2006

@<TRIPOS>MOLECULE
ASD01200217
  42   43    0    0    0
SMALL
NO_CHARGES


@<TRIPOS>ATOM
   1 C1            -0.0167     1.3781     0.0096 C.ar    
   2 C2             0.0021    -0.0041     0.0020 C.ar    
   3 C3             1.2084    -0.6789    -0.0132 C.ar    
   4 C4             2.3961     0.0285    -0.0212 C.ar    
   5 C5             2.3773     1.4107    -0.0145 C.ar    
   6 C6             1.1709     2.0855     0.0021 C.ar    
   7 C7             1.2289    -2.1857    -0.0205 C.3     
   8 C8             1.9445    -2.6800    -1.2792 C.3     
   9 C9             1.9583    -2.6841     1.2005 C.2     
  10 N10            1.5056    -2.3706     2.4306 N.am    
  11 O11            2.9522    -3.3671     1.0761 O.2     
  12 C12            1.1365    -2.2802    -2.5154 C.3     
  13 C13            2.1579    -2.8163     3.5225 C.2     
  14 N14            1.7053    -2.5028     4.7527 N.am    
  15 O15            3.1543    -3.5010     3.3979 O.2     
  16 C16            1.9051    -2.6604    -3.7931 C.3     
  17 C17            1.0153    -3.6587    -4.5621 C.3     
  18 C18           -0.4175    -3.3583    -4.0560 C.3     
  19 C19           -0.1936    -3.0607    -2.5526 C.3     
  20 C20            2.4144    -2.9873     5.9396 C.3     
  21 H21           -0.9592     1.9054     0.0170 H       
  22 H22           -0.9258    -0.5567     0.0083 H       
  23 H23            3.3386    -0.4987    -0.0324 H       
  24 H24            3.3052     1.9634    -0.0205 H       
  25 H25            1.1563     3.1654     0.0069 H       
  26 H26            0.2063    -2.5630    -0.0120 H       
  27 H27            2.9366    -2.2316    -1.3329 H       
  28 H28            2.0379    -3.7653    -1.2416 H       
  29 H29            0.7104    -1.8241     2.5301 H       
  30 H30            0.9409    -1.2079    -2.5025 H       
  31 H31            0.9101    -1.9563     4.8522 H       
  32 H32            2.0817    -1.7728    -4.4007 H       
  33 H33            2.8538    -3.1297    -3.5325 H       
  34 H34            1.0852    -3.4836    -5.6357 H       
  35 H35            1.2973    -4.6840    -4.3227 H       
  36 H36           -0.8322    -2.4880    -4.5645 H       
  37 H37           -1.0630    -4.2270    -4.1859 H       
  38 H38           -0.1067    -3.9894    -1.9886 H       
  39 H39           -1.0058    -2.4492    -2.1597 H       
  40 H40            1.9046    -2.6352     6.8364 H       
  41 H41            2.4292    -4.0772     5.9343 H       
  42 H42            3.4370    -2.6100     5.9312 H       
@<TRIPOS>BOND
   1    1    2 ar
   2    1    6 ar
   3    1   21 1
   4    2    3 ar
   5    2   22 1
   6    3    4 ar
   7    3    7 1
   8    4    5 ar
   9    4   23 1
  10    5    6 ar
  11    5   24 1
  12    6   25 1
  13    7    8 1
  14    7    9 1
  15    7   26 1
  16    8   12 1
  17    8   27 1
  18    8   28 1
  19    9   10 am
  20    9   11 2
  21   10   13 am
  22   10   29 1
  23   12   16 1
  24   12   19 1
  25   12   30 1
  26   13   14 am
  27   13   15 2
  28   14   20 1
  29   14   31 1
  30   16   17 1
  31   16   32 1
  32   16   33 1
  33   17   18 1
  34   17   34 1
  35   17   35 1
  36   18   19 1
  37   18   36 1
  38   18   37 1
  39   19   38 1
  40   19   39 1
  41   20   40 1
  42   20   41 1
  43   20   42 1

#	End of record

