#	Name: ASD05313125
#	Creating user name:	WinNT
#	Creation time:	15. 06. 2019 20:58

#	Modifying user name:	WinNT
#	Modification time:	15. 06. 2019 20:58

#	Program:	/corina/corina34_cracker 3.40 0067  02.08.2006

@<TRIPOS>MOLECULE
ASD05313125
  37   40    0    0    0
SMALL
NO_CHARGES


@<TRIPOS>ATOM
   1 C1            -0.0721     0.8168     1.0247 C.2     
   2 C2             0.1140    -0.6194     0.5969 C.3     
   3 N3             0.9301     1.7302     1.0511 N.pl3   
   4 N4             1.4571    -0.7186    -0.0051 N.am    
   5 C5             2.5714    -0.0370     0.6709 C.3     
   6 C6             2.3168     1.4751     0.6646 C.3     
   7 N7            -0.9042     2.6396     1.7094 N.2     
   8 N8            -1.1571     1.4076     1.4277 N.2     
   9 C9             0.3717     2.8897     1.4959 C.2     
  10 C10            1.0645     4.1800     1.7028 C.ar    
  11 C11            0.3551     5.2898     2.1670 C.ar    
  12 N12            2.3671     4.2863     1.4527 N.ar    
  13 N13            0.9786     6.4382     2.3501 N.ar    
  14 C14            2.2723     6.5387     2.0949 C.ar    
  15 C15            2.9808     5.4399     1.6394 C.ar    
  16 C16            1.6574    -1.4143    -1.1419 C.2     
  17 O17            2.7490    -1.4035    -1.6767 O.2     
  18 C18            0.5501    -2.1902    -1.7381 C.ar    
  19 C19            0.3186    -2.1384    -3.1151 C.ar    
  20 C20           -0.7184    -2.8664    -3.6650 C.ar    
  21 C21           -1.5260    -3.6445    -2.8556 C.ar    
  22 C22           -1.3019    -3.6995    -1.4912 C.ar    
  23 C23           -0.2658    -2.9829    -0.9292 C.ar    
  24 Cl24           1.3310    -1.1612    -4.1319 Cl      
  25 H25            0.0451    -1.2775     1.4631 H       
  26 H26           -0.6440    -0.8898    -0.1382 H       
  27 H27            2.6436    -0.3897     1.6997 H       
  28 H28            3.5020    -0.2517     0.1455 H       
  29 H29            2.4947     1.8701    -0.3356 H       
  30 H30            2.9876     1.9605     1.3735 H       
  31 H31           -0.7015     5.2084     2.3752 H       
  32 H32            2.7788     7.4806     2.2458 H       
  33 H33            4.0380     5.5267     1.4370 H       
  34 H34           -0.8991    -2.8277    -4.7291 H       
  35 H35           -2.3358    -4.2116    -3.2904 H       
  36 H36           -1.9370    -4.3087    -0.8652 H       
  37 H37           -0.0893    -3.0312     0.1352 H       
@<TRIPOS>BOND
   1    1    2 1
   2    1    3 1
   3    1    8 2
   4    2    4 1
   5    2   25 1
   6    2   26 1
   7    3    6 1
   8    3    9 1
   9    4    5 1
  10    4   16 am
  11    5    6 1
  12    5   27 1
  13    5   28 1
  14    6   29 1
  15    6   30 1
  16    7    8 1
  17    7    9 2
  18    9   10 1
  19   10   11 ar
  20   10   12 ar
  21   11   13 ar
  22   11   31 1
  23   12   15 ar
  24   13   14 ar
  25   14   15 ar
  26   14   32 1
  27   15   33 1
  28   16   17 2
  29   16   18 1
  30   18   19 ar
  31   18   23 ar
  32   19   20 ar
  33   19   24 1
  34   20   21 ar
  35   20   34 1
  36   21   22 ar
  37   21   35 1
  38   22   23 ar
  39   22   36 1
  40   23   37 1

#	End of record

