#	Name: ASD03331624
#	Creating user name:	WinNT
#	Creation time:	15. 06. 2019 20:39

#	Modifying user name:	WinNT
#	Modification time:	15. 06. 2019 20:39

#	Program:	/corina/corina34_cracker 3.40 0067  02.08.2006

@<TRIPOS>MOLECULE
ASD03331624
  44   47    0    0    0
SMALL
NO_CHARGES


@<TRIPOS>ATOM
   1 N1            -0.0119     1.2643     0.8145 N.pl3   
   2 C2             0.0048    -0.0674     0.4693 C.2     
   3 C3             1.2879    -0.4874     0.3417 C.2     
   4 C4             2.1432     0.6633     0.6273 C.ar    
   5 C5             3.5274     0.8572     0.6569 C.ar    
   6 C6             4.0335     2.0872     0.9677 C.ar    
   7 C7             3.1842     3.1473     1.2552 C.ar    
   8 C8             1.8169     2.9790     1.2325 C.ar    
   9 C9             1.2783     1.7356     0.9177 C.ar    
  10 C10           -1.1928    -0.9115     0.2681 C.ar    
  11 C11           -2.2726    -0.4304    -0.4734 C.ar    
  12 C12           -3.3868    -1.2229    -0.6577 C.ar    
  13 C13           -3.4349    -2.4922    -0.1093 C.ar    
  14 C14           -2.3677    -2.9751     0.6270 C.ar    
  15 C15           -1.2455    -2.1946     0.8142 C.ar    
  16 C16            1.7451    -1.8760    -0.0242 C.3     
  17 C17            1.2103    -2.2402    -1.4107 C.3     
  18 C18            3.2513    -1.9213    -0.0390 C.ar    
  19 C19            3.9374    -2.4533     1.0368 C.ar    
  20 C20            5.3190    -2.4949     1.0232 C.ar    
  21 C21            6.0146    -2.0049    -0.0663 C.ar    
  22 C22            5.3286    -1.4737    -1.1424 C.ar    
  23 C23            3.9468    -1.4361    -1.1307 C.ar    
  24 N24            1.5531    -3.6313    -1.7164 N.pl3   
  25 O25            0.7160    -4.3730    -2.1987 O.2     
  26 O26            2.6754    -4.0462    -1.4883 O.2     
  27 H27           -0.8121     1.7930     0.9594 H       
  28 H28            4.1943     0.0371     0.4351 H       
  29 H29            5.1029     2.2363     0.9904 H       
  30 H30            3.5996     4.1138     1.4995 H       
  31 H31            1.1651     3.8100     1.4584 H       
  32 H32           -2.2364     0.5604    -0.9018 H       
  33 H33           -4.2233    -0.8516    -1.2311 H       
  34 H34           -4.3095    -3.1086    -0.2562 H       
  35 H35           -2.4116    -3.9666     1.0528 H       
  36 H36           -0.4113    -2.5744     1.3854 H       
  37 H37            1.3673    -2.5880     0.7095 H       
  38 H38            0.1269    -2.1214    -1.4249 H       
  39 H39            1.6576    -1.5833    -2.1567 H       
  40 H40            3.3939    -2.8361     1.8879 H       
  41 H41            5.8551    -2.9098     1.8640 H       
  42 H42            7.0941    -2.0367    -0.0765 H       
  43 H43            5.8720    -1.0906    -1.9934 H       
  44 H44            3.4106    -1.0245    -1.9731 H       
@<TRIPOS>BOND
   1    1    2 1
   2    1    9 1
   3    1   27 1
   4    2    3 2
   5    2   10 1
   6    3    4 1
   7    3   16 1
   8    4    5 ar
   9    4    9 ar
  10    5    6 ar
  11    5   28 1
  12    6    7 ar
  13    6   29 1
  14    7    8 ar
  15    7   30 1
  16    8    9 ar
  17    8   31 1
  18   10   11 ar
  19   10   15 ar
  20   11   12 ar
  21   11   32 1
  22   12   13 ar
  23   12   33 1
  24   13   14 ar
  25   13   34 1
  26   14   15 ar
  27   14   35 1
  28   15   36 1
  29   16   17 1
  30   16   18 1
  31   16   37 1
  32   17   24 1
  33   17   38 1
  34   17   39 1
  35   18   19 ar
  36   18   23 ar
  37   19   20 ar
  38   19   40 1
  39   20   21 ar
  40   20   41 1
  41   21   22 ar
  42   21   42 1
  43   22   23 ar
  44   22   43 1
  45   23   44 1
  46   24   25 2
  47   24   26 2

#	End of record

