#	Name: ASD01911108
#	Creating user name:	WinNT
#	Creation time:	15. 06. 2019 19:57

#	Modifying user name:	WinNT
#	Modification time:	15. 06. 2019 19:57

#	Program:	/corina/corina34_cracker 3.40 0067  02.08.2006

@<TRIPOS>MOLECULE
ASD01911108
  49   52    0    0    0
SMALL
NO_CHARGES


@<TRIPOS>ATOM
   1 C1            -0.1615     1.0273    -0.1929 C.2     
   2 O2            -1.1096     1.7862    -0.2454 O.2     
   3 N3             1.0945     1.5138    -0.2412 N.am    
   4 C4             2.2487     0.6279    -0.0370 C.3     
   5 C5             3.1293     1.2130     1.0716 C.3     
   6 C6             3.4988     2.6550     0.7164 C.3     
   7 C7             2.2263     3.4991     0.6142 C.3     
   8 C8             1.3357     2.9388    -0.5051 C.3     
   9 O9             5.3011     0.1803     0.2538 O.3     
  10 N10            6.1883    -0.5264     0.6836 N.2     
  11 C11            5.9489    -0.8428     1.9265 C.2     
  12 N12            4.7849    -0.2550     2.2723 N.2     
  13 C13            4.3848     0.3900     1.2038 C.2     
  14 O14            6.7258    -1.6183     2.7228 O.3     
  15 C15            7.8147    -2.2129     2.1680 C.ar    
  16 C16            8.1886    -1.9036     0.8682 C.ar    
  17 C17            9.2958    -2.5094     0.3066 C.ar    
  18 C18           10.0309    -3.4236     1.0385 C.ar    
  19 C19            9.6601    -3.7339     2.3339 C.ar    
  20 C20            8.5576    -3.1260     2.9025 C.ar    
  21 C21           -0.3861    -0.4289    -0.0699 C.ar    
  22 C22            0.4559    -1.3253    -0.7289 C.ar    
  23 C23            0.2397    -2.6875    -0.6087 C.ar    
  24 C24           -0.8121    -3.1586     0.1657 C.ar    
  25 C25           -1.6474    -2.2716     0.8189 C.ar    
  26 C26           -1.4375    -0.9119     0.7105 C.ar    
  27 O27            1.0572    -3.5642    -1.2493 O.3     
  28 C28            0.7761    -4.9551    -1.0812 C.3     
  29 H29            1.9016    -0.3627     0.2567 H       
  30 H30            2.8230     0.5571    -0.9607 H       
  31 H31            2.5837     1.1991     2.0151 H       
  32 H32            4.1457     3.0657     1.4917 H       
  33 H33            4.0228     2.6708    -0.2393 H       
  34 H34            1.6892     3.4637     1.5620 H       
  35 H35            2.4917     4.5310     0.3842 H       
  36 H36            1.8370     3.0527    -1.4663 H       
  37 H37            0.3860     3.4735    -0.5205 H       
  38 H38            7.6144    -1.1901     0.2959 H       
  39 H39            9.5873    -2.2690    -0.7051 H       
  40 H40           10.8960    -3.8964     0.5975 H       
  41 H41           10.2355    -4.4488     2.9033 H       
  42 H42            8.2711    -3.3651     3.9160 H       
  43 H43            1.2735    -0.9576    -1.3312 H       
  44 H44           -0.9785    -4.2217     0.2578 H       
  45 H45           -2.4643    -2.6440     1.4193 H       
  46 H46           -2.0892    -0.2218     1.2257 H       
  47 H47            0.8403    -5.2136    -0.0242 H       
  48 H48           -0.2279    -5.1697    -1.4474 H       
  49 H49            1.5014    -5.5430    -1.6437 H       
@<TRIPOS>BOND
   1    1    2 2
   2    1    3 am
   3    1   21 1
   4    3    4 1
   5    3    8 1
   6    4    5 1
   7    4   29 1
   8    4   30 1
   9    5    6 1
  10    5   13 1
  11    5   31 1
  12    6    7 1
  13    6   32 1
  14    6   33 1
  15    7    8 1
  16    7   34 1
  17    7   35 1
  18    8   36 1
  19    8   37 1
  20    9   10 1
  21    9   13 1
  22   10   11 2
  23   11   12 1
  24   11   14 1
  25   12   13 2
  26   14   15 1
  27   15   16 ar
  28   15   20 ar
  29   16   17 ar
  30   16   38 1
  31   17   18 ar
  32   17   39 1
  33   18   19 ar
  34   18   40 1
  35   19   20 ar
  36   19   41 1
  37   20   42 1
  38   21   22 ar
  39   21   26 ar
  40   22   23 ar
  41   22   43 1
  42   23   24 ar
  43   23   27 1
  44   24   25 ar
  45   24   44 1
  46   25   26 ar
  47   25   45 1
  48   26   46 1
  49   27   28 1
  50   28   47 1
  51   28   48 1
  52   28   49 1

#	End of record

