#	Name: ASD01915197
#	Creating user name:	WinNT
#	Creation time:	15. 06. 2019 20:05

#	Modifying user name:	WinNT
#	Modification time:	15. 06. 2019 20:05

#	Program:	/corina/corina34_cracker 3.40 0067  02.08.2006

@<TRIPOS>MOLECULE
ASD01915197
  31   33    0    0    0
SMALL
NO_CHARGES


@<TRIPOS>ATOM
   1 C1            -0.0162     1.3436     0.0094 C.2     
   2 N2             0.0021    -0.0041     0.0020 N.am    
   3 C3             1.0368    -1.0490    -0.0135 C.3     
   4 C4             0.0358    -1.9749     0.6913 C.3     
   5 C5            -1.0039    -1.0768     0.0125 C.3     
   6 O6            -0.2019    -3.8004    -1.0585 O.3     
   7 N7            -0.1077    -5.0074    -1.1314 N.2     
   8 C8             0.2085    -5.5047     0.0359 C.2     
   9 N9             0.3124    -4.4673     0.8969 N.2     
  10 C10            0.0501    -3.3961     0.1904 C.2     
  11 C11            0.4142    -6.9394     0.3559 C.ar    
  12 C12            0.2728    -7.9047    -0.6388 C.ar    
  13 C13            0.7994    -9.6156     0.9543 C.ar    
  14 C14            0.7551    -7.3248     1.6505 C.ar    
  15 C15            0.4659    -9.2383    -0.3354 C.ar    
  16 C16            0.9459    -8.6603     1.9433 C.ar    
  17 Cl17           0.2897   -10.4430    -1.5728 Cl      
  18 O18            1.0258     1.9642     0.0028 O.2     
  19 C19           -1.3314     2.0792     0.0197 C.3     
  20 H20            1.3033    -1.3812    -1.0168 H       
  21 H21            1.9075    -0.8068     0.5960 H       
  22 H22            0.0455    -1.8987     1.7786 H       
  23 H23           -1.8650    -0.8582     0.6439 H       
  24 H24           -1.2866    -1.4165    -0.9839 H       
  25 H25            0.0123    -7.6108    -1.6448 H       
  26 H26            0.9492   -10.6593     1.1879 H       
  27 H27            0.8702    -6.5798     2.4239 H       
  28 H28            1.2061    -8.9600     2.9477 H       
  29 H29           -1.6436     2.2510     1.0498 H       
  30 H30           -1.2164     3.0361    -0.4895 H       
  31 H31           -2.0854     1.4827    -0.4938 H       
@<TRIPOS>BOND
   1    1    2 am
   2    1   18 2
   3    1   19 1
   4    2    3 1
   5    2    5 1
   6    3    4 1
   7    3   20 1
   8    3   21 1
   9    4    5 1
  10    4   10 1
  11    4   22 1
  12    5   23 1
  13    5   24 1
  14    6    7 1
  15    6   10 1
  16    7    8 2
  17    8    9 1
  18    8   11 1
  19    9   10 2
  20   11   12 ar
  21   11   14 ar
  22   12   15 ar
  23   12   25 1
  24   13   15 ar
  25   13   16 ar
  26   13   26 1
  27   14   16 ar
  28   14   27 1
  29   15   17 1
  30   16   28 1
  31   19   29 1
  32   19   30 1
  33   19   31 1

#	End of record

