#	Name: ASD08170030
#	Creating user name:	WinNT
#	Creation time:	15. 06. 2019 21:17

#	Modifying user name:	WinNT
#	Modification time:	15. 06. 2019 21:17

#	Program:	/corina/corina34_cracker 3.40 0067  02.08.2006

@<TRIPOS>MOLECULE
ASD08170030
  44   46    0    0    0
SMALL
NO_CHARGES


@<TRIPOS>ATOM
   1 C1            -0.0184     1.5028     0.0103 C.3     
   2 C2             0.0021    -0.0041     0.0020 C.2     
   3 C3            -1.1370    -2.0836     0.0017 C.2     
   4 S4             0.2776    -3.0437    -0.0163 S.3     
   5 C5            -0.7030    -4.5073    -0.0071 C.2     
   6 C6            -1.9872    -4.1448     0.0086 C.2     
   7 N7            -2.1892    -2.8405     0.0129 N.2     
   8 C8            -3.1154    -5.1438     0.0195 C.3     
   9 C9            -4.0320    -4.8650     1.2124 C.3     
  10 C10           -5.1774    -5.8793     1.2235 C.3     
  11 C11           -6.0940    -5.6004     2.4164 C.3     
  12 C12           -7.2223    -6.5994     2.4273 C.2     
  13 S13           -8.7842    -6.4115     1.6274 S.3     
  14 C14           -9.2505    -7.9992     2.2414 C.2     
  15 N15           -8.2499    -8.4649     2.9330 N.2     
  16 N16           -7.2156    -7.7489     3.0198 N.2     
  17 N17          -10.4637    -8.6361     2.0262 N.pl3   
  18 O18            1.0605    -0.5961    -0.0113 O.2     
  19 N19           -1.1558    -0.6938     0.0094 N.am    
  20 C20            1.3954     2.0244    -0.0004 C.ar    
  21 C21            2.0324     2.2701    -1.2024 C.ar    
  22 C22            3.3293     2.7485    -1.2122 C.ar    
  23 C23            3.9890     2.9817    -0.0200 C.ar    
  24 C24            3.3517     2.7369     1.1820 C.ar    
  25 C25            2.0533     2.2626     1.1918 C.ar    
  26 H26           -0.5455     1.8639    -0.8728 H       
  27 H27           -0.5286     1.8543     0.9071 H       
  28 H28           -0.3300    -5.5208    -0.0133 H       
  29 H29           -3.6861    -5.0576    -0.9052 H       
  30 H30           -2.7078    -6.1514     0.1022 H       
  31 H31           -3.4613    -4.9513     2.1370 H       
  32 H32           -4.4396    -3.8575     1.1297 H       
  33 H33           -5.7481    -5.7930     0.2988 H       
  34 H34           -4.7698    -6.8868     1.3062 H       
  35 H35           -5.5234    -5.6867     3.3410 H       
  36 H36           -6.5017    -4.5929     2.3337 H       
  37 H37          -11.1502    -8.2047     1.4937 H       
  38 H38          -10.6257    -9.5128     2.4083 H       
  39 H39           -2.0023    -0.2203     0.0200 H       
  40 H40            1.5170     2.0879    -2.1338 H       
  41 H41            3.8272     2.9397    -2.1513 H       
  42 H42            5.0025     3.3548    -0.0277 H       
  43 H43            3.8673     2.9187     2.1134 H       
  44 H44            1.5554     2.0713     2.1309 H       
@<TRIPOS>BOND
   1    1    2 1
   2    1   20 1
   3    1   26 1
   4    1   27 1
   5    2   18 2
   6    2   19 am
   7    3    4 1
   8    3    7 2
   9    3   19 1
  10    4    5 1
  11    5    6 2
  12    5   28 1
  13    6    7 1
  14    6    8 1
  15    8    9 1
  16    8   29 1
  17    8   30 1
  18    9   10 1
  19    9   31 1
  20    9   32 1
  21   10   11 1
  22   10   33 1
  23   10   34 1
  24   11   12 1
  25   11   35 1
  26   11   36 1
  27   12   13 1
  28   12   16 2
  29   13   14 1
  30   14   15 2
  31   14   17 1
  32   15   16 1
  33   17   37 1
  34   17   38 1
  35   19   39 1
  36   20   21 ar
  37   20   25 ar
  38   21   22 ar
  39   21   40 1
  40   22   23 ar
  41   22   41 1
  42   23   24 ar
  43   23   42 1
  44   24   25 ar
  45   24   43 1
  46   25   44 1

#	End of record

