#	Name: ASD00843074
#	Creating user name:	WinNT
#	Creation time:	15. 06. 2019 18:45

#	Modifying user name:	WinNT
#	Modification time:	15. 06. 2019 18:45

#	Program:	/corina/corina34_cracker 3.40 0067  02.08.2006

@<TRIPOS>MOLECULE
ASD00843074
  87   92    0    0    0
SMALL
NO_CHARGES


@<TRIPOS>ATOM
   1 N1            -0.0052     1.3210     0.0354 N.ar    
   2 C2             0.0088    -0.0013     0.0185 C.ar    
   3 C3             1.2116    -0.6962    -0.0015 C.ar    
   4 C4             2.3993     0.0138    -0.0035 C.ar    
   5 C5             2.3417     1.4008     0.0147 C.ar    
   6 C6             1.1108     2.0254     0.0340 C.ar    
   7 C7             1.2227    -2.2030    -0.0203 C.3     
   8 C8             0.4753    -2.7236    -1.2293 C.2     
   9 N9             2.5990    -2.7049    -0.0126 N.am    
  10 C10            3.4464    -2.3633    -1.0034 C.2     
  11 N11            4.7400    -2.7368    -0.9424 N.am    
  12 O12            3.0439    -1.7183    -1.9522 O.2     
  13 C13            5.2678    -3.4156     0.2490 C.3     
  14 C14            6.4986    -2.6515     0.7470 C.3     
  15 C15            7.5064    -2.5146    -0.3966 C.3     
  16 C16            6.8755    -1.7199    -1.5423 C.3     
  17 C17            5.6476    -2.4785    -2.0686 C.3     
  18 N18            8.7022    -1.8113     0.0864 N.3     
  19 C19            9.7414    -1.7652    -0.9517 C.3     
  20 C20           10.9360    -0.9579    -0.4385 C.3     
  21 N21           11.4507    -1.5773     0.7908 N.3     
  22 C22           10.4115    -1.6233     1.8289 C.3     
  23 C23            9.2169    -2.4306     1.3156 C.3     
  24 C24           12.6466    -0.8740     1.2738 C.3     
  25 O25            0.7565    -2.5213    -2.3917 O.2     
  26 N26           -0.5572    -3.4525    -0.7739 N.am    
  27 C27            0.4488    -2.7530     1.1564 C.ar    
  28 C28           -0.6026    -3.4906     0.6219 C.ar    
  29 C29            0.6181    -2.6404     2.5188 C.ar    
  30 C30           -1.3286    -4.0104     2.8624 C.ar    
  31 C31           -1.4937    -4.1212     1.4821 C.ar    
  32 C32           -1.0272    -5.8348    -2.0693 C.ar    
  33 C33           -1.3610    -6.8794    -1.2271 C.ar    
  34 C34           -0.2093    -6.0586    -3.1614 C.ar    
  35 C35            0.2764    -7.3270    -3.4138 C.ar    
  36 C36           -0.0571    -8.3767    -2.5703 C.ar    
  37 C37           -0.8775    -8.1495    -1.4749 C.ar    
  38 O38            0.4191    -9.6255    -2.8166 O.3     
  39 H39           -2.0001    -6.7020    -0.3747 H       
  40 C40            0.0346   -10.6577    -1.9063 C.3     
  41 C41           -0.2643    -3.2664     3.3819 C.ar    
  42 F42           -0.0996    -3.1579     4.7184 F       
  43 S43           -1.6509    -4.2173    -1.7544 S.o2    
  44 O44           -2.8322    -4.3860    -0.9828 O.2     
  45 O45           -1.6260    -3.5286    -2.9971 O.2     
  46 O46           -1.1626    -0.6857     0.0211 O.3     
  47 C47           -2.3650     0.0862     0.0425 C.3     
  48 C48           -3.5735    -0.8520     0.0423 C.3     
  49 F49           -3.5485    -1.6443    -1.1105 F       
  50 F50           -3.5265    -1.6734     1.1738 F       
  51 C51           -2.2476    -4.6599     3.7479 C.1     
  52 N52           -2.9767    -5.1752     4.4503 N.1     
  53 H53            3.3495    -0.4993    -0.0185 H       
  54 H54            3.2501     1.9849     0.0140 H       
  55 H55            1.0604     3.1041     0.0479 H       
  56 H56            2.9004    -3.2830     0.7057 H       
  57 H57            4.5064    -3.4299     1.0288 H       
  58 H58            5.5506    -4.4366    -0.0074 H       
  59 H59            6.1984    -1.6606     1.0879 H       
  60 H60            6.9565    -3.1973     1.5719 H       
  61 H61            7.7874    -3.5054    -0.7536 H       
  62 H62            6.5717    -0.7379    -1.1799 H       
  63 H63            7.6015    -1.6027    -2.3468 H       
  64 H64            5.9639    -3.4218    -2.5137 H       
  65 H65            5.1365    -1.8723    -2.8166 H       
  66 H66           10.0629    -2.7792    -1.1896 H       
  67 H67            9.3399    -1.2912    -1.8474 H       
  68 H68           11.7199    -0.9469    -1.1958 H       
  69 H69           10.6204     0.0636    -0.2264 H       
  70 H70           10.8130    -2.0973     2.7246 H       
  71 H71           10.0900    -0.6093     2.0668 H       
  72 H72            8.4331    -2.4417     2.0730 H       
  73 H73            9.5325    -3.4522     1.1035 H       
  74 H74           12.3963     0.1657     1.4847 H       
  75 H75           13.0067    -1.3528     2.1844 H       
  76 H76           13.4240    -0.9130     0.5108 H       
  77 H77            1.4408    -2.0630     2.9140 H       
  78 H78           -2.3156    -4.6959     1.0814 H       
  79 H79            0.0498    -5.2411    -3.8180 H       
  80 H80            0.9149    -7.5013    -4.2672 H       
  81 H81           -1.1389    -8.9651    -0.8170 H       
  82 H82            0.3799   -10.4051    -0.9037 H       
  83 H83           -1.0512   -10.7536    -1.9032 H       
  84 H84            0.4819   -11.6017    -2.2175 H       
  85 H85           -2.3845     0.7035     0.9407 H       
  86 H86           -2.4017     0.7262    -0.8391 H       
  87 H87           -4.4906    -0.2632     0.0586 H       
@<TRIPOS>BOND
   1    1    2 ar
   2    1    6 ar
   3    2    3 ar
   4    2   46 1
   5    3    4 ar
   6    3    7 1
   7    4    5 ar
   8    4   53 1
   9    5    6 ar
  10    5   54 1
  11    6   55 1
  12    7    8 1
  13    7    9 1
  14    7   27 1
  15    8   25 2
  16    8   26 am
  17    9   10 am
  18    9   56 1
  19   10   11 am
  20   10   12 2
  21   11   13 1
  22   11   17 1
  23   13   14 1
  24   13   57 1
  25   13   58 1
  26   14   15 1
  27   14   59 1
  28   14   60 1
  29   15   16 1
  30   15   18 1
  31   15   61 1
  32   16   17 1
  33   16   62 1
  34   16   63 1
  35   17   64 1
  36   17   65 1
  37   18   19 1
  38   18   23 1
  39   19   20 1
  40   19   66 1
  41   19   67 1
  42   20   21 1
  43   20   68 1
  44   20   69 1
  45   21   22 1
  46   21   24 1
  47   22   23 1
  48   22   70 1
  49   22   71 1
  50   23   72 1
  51   23   73 1
  52   24   74 1
  53   24   75 1
  54   24   76 1
  55   26   43 am
  56   26   28 1
  57   27   28 ar
  58   27   29 ar
  59   28   31 ar
  60   29   41 ar
  61   29   77 1
  62   30   31 ar
  63   30   51 1
  64   30   41 ar
  65   31   78 1
  66   32   33 ar
  67   32   34 ar
  68   32   43 1
  69   33   39 1
  70   33   37 ar
  71   34   35 ar
  72   34   79 1
  73   35   36 ar
  74   35   80 1
  75   36   37 ar
  76   36   38 1
  77   37   81 1
  78   38   40 1
  79   40   82 1
  80   40   83 1
  81   40   84 1
  82   41   42 1
  83   43   44 2
  84   43   45 2
  85   46   47 1
  86   47   48 1
  87   47   85 1
  88   47   86 1
  89   48   49 1
  90   48   50 1
  91   48   87 1
  92   51   52 3

#	End of record

