#	Name: ASD03200060
#	Creating user name:	WinNT
#	Creation time:	15. 06. 2019 20:34

#	Modifying user name:	WinNT
#	Modification time:	15. 06. 2019 20:34

#	Program:	/corina/corina34_cracker 3.40 0067  02.08.2006

@<TRIPOS>MOLECULE
ASD03200060
  53   57    0    0    0
SMALL
NO_CHARGES


@<TRIPOS>ATOM
   1 C1             0.9645    -1.0215    -0.1638 C.3     
   2 N2            -0.0357     0.0421    -0.0066 N.3     
   3 C3             0.2942     0.9182     1.1248 C.3     
   4 C4             1.6409     1.5987     0.8689 C.3     
   5 C5             2.7228     0.5292     0.6950 C.3     
   6 C6             2.3312    -0.3989    -0.4582 C.3     
   7 C7            -1.3158    -0.4924     0.1322 C.ar    
   8 C8            -2.0208    -0.3586     1.3257 C.ar    
   9 C9            -3.2858    -0.9018     1.4236 C.ar    
  10 N10           -3.8306    -1.5420     0.4064 N.ar    
  11 C11           -3.1995    -1.6928    -0.7429 C.ar    
  12 C12           -1.9290    -1.1730    -0.9265 C.ar    
  13 N13           -1.2630    -1.3359    -2.1487 N.am    
  14 C14           -1.4463    -2.4585    -2.8716 C.2     
  15 C15           -0.8513    -2.5764    -4.2049 C.2     
  16 O16           -2.1064    -3.3748    -2.4164 O.2     
  17 C17           -1.0857    -3.6509    -5.0335 C.2     
  18 S18           -0.1860    -3.3945    -6.5265 S.3     
  19 C19            0.4263    -1.8657    -5.9060 C.2     
  20 N20           -0.0419    -1.6488    -4.7193 N.2     
  21 C21            1.3380    -0.9593    -6.6359 C.2     
  22 N22           -1.8853    -4.7388    -4.7448 N.pl3   
  23 N23            1.9805     2.4588     2.0104 N.3     
  24 C24            1.6854    -1.2348    -7.9251 C.2     
  25 N25            2.5251    -0.4056    -8.6067 N.pl3   
  26 C26            3.0334     0.7180    -8.0079 C.2     
  27 C27            2.6860     1.0221    -6.6747 C.2     
  28 C28            1.8462     0.1985    -5.9980 C.2     
  29 C29            3.0269    -0.4426    -9.8800 C.2     
  30 C30            3.8181     0.6421   -10.0283 C.2     
  31 N31            3.8115     1.3343    -8.8865 N.2     
  32 H32            1.0216    -1.6051     0.7550 H       
  33 H33            0.6762    -1.6719    -0.9897 H       
  34 H34           -0.4808     1.6766     1.2349 H       
  35 H35            0.3544     0.3255     2.0376 H       
  36 H36            1.5773     2.2026    -0.0362 H       
  37 H37            3.6756     1.0083     0.4695 H       
  38 H38            2.8136    -0.0499     1.6139 H       
  39 H39            3.0763    -1.1879    -0.5594 H       
  40 H40            2.2784     0.1736    -1.3842 H       
  41 H41           -1.5833     0.1633     2.1639 H       
  42 H42           -3.8378    -0.8019     2.3465 H       
  43 H43           -3.6811    -2.2237    -1.5508 H       
  44 H44           -0.6702    -0.6407    -2.4745 H       
  45 H45           -2.3427    -4.7915    -3.8911 H       
  46 H46           -1.9896    -5.4504    -5.3957 H       
  47 H47            2.8663     2.9195     1.8650 H       
  48 H48            1.2485     3.1302     2.1877 H       
  49 H49            1.2926    -2.1165    -8.4096 H       
  50 H50            3.0831     1.9057    -6.1973 H       
  51 H51            1.5726     0.4208    -4.9771 H       
  52 H52            2.8280    -1.1980   -10.6259 H       
  53 H53            4.3651     0.9055   -10.9215 H       
@<TRIPOS>BOND
   1    1    2 1
   2    1    6 1
   3    1   32 1
   4    1   33 1
   5    2    3 1
   6    2    7 1
   7    3    4 1
   8    3   34 1
   9    3   35 1
  10    4    5 1
  11    4   23 1
  12    4   36 1
  13    5    6 1
  14    5   37 1
  15    5   38 1
  16    6   39 1
  17    6   40 1
  18    7    8 ar
  19    7   12 ar
  20    8    9 ar
  21    8   41 1
  22    9   10 ar
  23    9   42 1
  24   10   11 ar
  25   11   12 ar
  26   11   43 1
  27   12   13 1
  28   13   14 am
  29   13   44 1
  30   14   15 1
  31   14   16 2
  32   15   17 2
  33   15   20 1
  34   17   18 1
  35   17   22 1
  36   18   19 1
  37   19   20 2
  38   19   21 1
  39   21   24 2
  40   21   28 1
  41   22   45 1
  42   22   46 1
  43   23   47 1
  44   23   48 1
  45   24   25 1
  46   24   49 1
  47   25   26 1
  48   25   29 1
  49   26   27 1
  50   26   31 2
  51   27   28 2
  52   27   50 1
  53   28   51 1
  54   29   30 2
  55   29   52 1
  56   30   31 1
  57   30   53 1

#	End of record

