#	Name: ASD00170114
#	Creating user name:	WinNT
#	Creation time:	15. 06. 2019 18:31

#	Modifying user name:	WinNT
#	Modification time:	15. 06. 2019 18:31

#	Program:	/corina/corina34_cracker 3.40 0067  02.08.2006

@<TRIPOS>MOLECULE
ASD00170114
  31   34    0    0    0
SMALL
NO_CHARGES


@<TRIPOS>ATOM
   1 C1            -0.0182     1.4915     0.0102 C.2     
   2 C2             0.0021    -0.0041     0.0020 C.ar    
   3 C3             1.3190    -0.4523    -0.0130 C.ar    
   4 C4             2.1957     0.7739    -0.0148 C.3     
   5 C5             1.2472     1.9528     0.0006 C.2     
   6 S6             1.2222     3.7156     0.0099 S.3     
   7 C7            -0.5366     3.6920     0.0263 C.2     
   8 N8            -0.9504     2.4702     0.0195 N.2     
   9 C9            -1.0453    -0.9281     0.0071 C.ar    
  10 C10           -0.7701    -2.2774    -0.0028 C.ar    
  11 C11            0.5516    -2.7230    -0.0178 C.ar    
  12 C12            1.5976    -1.7992    -0.0229 C.ar    
  13 N13           -1.3514     4.8123     0.0397 N.pl3   
  14 C14            0.8449    -4.1767    -0.0280 C.ar    
  15 C15           -0.1990    -5.1005    -0.0225 C.ar    
  16 C16            0.0786    -6.4519    -0.0325 C.ar    
  17 C17            1.3926    -6.8913    -0.0474 C.ar    
  18 C18            2.4334    -5.9766    -0.0524 C.ar    
  19 C19            2.1652    -4.6233    -0.0488 C.ar    
  20 F20            1.6598    -8.2156    -0.0567 F       
  21 H21            2.8272     0.7868     0.8736 H       
  22 H22            2.8101     0.7964    -0.9148 H       
  23 H23           -2.0692    -0.5850     0.0190 H       
  24 H24           -1.5796    -2.9923     0.0014 H       
  25 H25            2.6222    -2.1406    -0.0348 H       
  26 H26           -0.9573     5.6987     0.0405 H       
  27 H27           -2.3160     4.7104     0.0483 H       
  28 H28           -1.2234    -4.7589    -0.0102 H       
  29 H29           -0.7295    -7.1684    -0.0283 H       
  30 H30            3.4561    -6.3236    -0.0637 H       
  31 H31            2.9771    -3.9111    -0.0531 H       
@<TRIPOS>BOND
   1    1    2 1
   2    1    5 2
   3    1    8 1
   4    2    3 ar
   5    2    9 ar
   6    3    4 1
   7    3   12 ar
   8    4    5 1
   9    4   21 1
  10    4   22 1
  11    5    6 1
  12    6    7 1
  13    7    8 2
  14    7   13 1
  15    9   10 ar
  16    9   23 1
  17   10   11 ar
  18   10   24 1
  19   11   12 ar
  20   11   14 1
  21   12   25 1
  22   13   26 1
  23   13   27 1
  24   14   15 ar
  25   14   19 ar
  26   15   16 ar
  27   15   28 1
  28   16   17 ar
  29   16   29 1
  30   17   18 ar
  31   17   20 1
  32   18   19 ar
  33   18   30 1
  34   19   31 1

#	End of record

