#	Name: ASD00170728
#	Creating user name:	WinNT
#	Creation time:	15. 06. 2019 18:32

#	Modifying user name:	WinNT
#	Modification time:	15. 06. 2019 18:32

#	Program:	/corina/corina34_cracker 3.40 0067  02.08.2006

@<TRIPOS>MOLECULE
ASD00170728
  37   40    0    0    0
SMALL
NO_CHARGES


@<TRIPOS>ATOM
   1 C1            -0.0134     1.2149     0.0086 C.2     
   2 O2             0.5127     0.9152     1.0653 O.2     
   3 C3             0.6357     0.8520    -1.2699 C.ar    
   4 C4             1.8999     0.2600    -1.2706 C.ar    
   5 C5             2.5000    -0.0765    -2.4657 C.ar    
   6 C6             1.8508     0.1717    -3.6638 C.ar    
   7 C7             0.5965     0.7592    -3.6694 C.ar    
   8 C8            -0.0159     1.0949    -2.4803 C.ar    
   9 Cl9            2.6125    -0.2548    -5.1643 Cl      
  10 C10           -3.6066     2.1298    -0.0902 C.2     
  11 C11           -2.5900     1.2561    -0.1103 C.2     
  12 C12           -1.2890     1.9277     0.0038 C.2     
  13 C13           -1.3919     3.2875     0.1052 C.2     
  14 S14           -3.0194     3.7809     0.0680 S.3     
  15 C15           -4.9061     1.3521    -0.2082 C.3     
  16 C16           -4.5069    -0.0976    -0.3000 C.ar    
  17 C17           -5.2296    -1.2645    -0.4209 C.ar    
  18 C18           -4.5704    -2.4803    -0.4828 C.ar    
  19 C19           -3.1888    -2.5266    -0.4236 C.ar    
  20 C20           -2.4582    -1.3622    -0.3025 C.ar    
  21 C21           -3.1182    -0.1340    -0.2446 C.ar    
  22 C22           -2.4790    -3.8542    -0.4911 C.3     
  23 F23           -3.4213    -4.8813    -0.6110 F       
  24 F24           -1.6267    -3.8714    -1.6004 F       
  25 F25           -1.7300    -4.0424     0.6754 F       
  26 N26           -0.3180     4.1456     0.2230 N.pl3   
  27 H27            2.4072     0.0664    -0.3370 H       
  28 H28            3.4782    -0.5342    -2.4675 H       
  29 H29            0.0952     0.9507    -4.6066 H       
  30 H30           -0.9959     1.5489    -2.4857 H       
  31 H31           -5.5248     1.5170     0.6739 H       
  32 H32           -5.4439     1.6521    -1.1075 H       
  33 H33           -6.3081    -1.2308    -0.4670 H       
  34 H34           -5.1362    -3.3954    -0.5772 H       
  35 H35           -1.3799    -1.4010    -0.2565 H       
  36 H36            0.5800     3.7895     0.3113 H       
  37 H37           -0.4608     5.1050     0.2176 H       
@<TRIPOS>BOND
   1    1    2 2
   2    1    3 1
   3    1   12 1
   4    3    4 ar
   5    3    8 ar
   6    4    5 ar
   7    4   27 1
   8    5    6 ar
   9    5   28 1
  10    6    7 ar
  11    6    9 1
  12    7    8 ar
  13    7   29 1
  14    8   30 1
  15   10   11 2
  16   10   14 1
  17   10   15 1
  18   11   12 1
  19   11   21 1
  20   12   13 2
  21   13   14 1
  22   13   26 1
  23   15   16 1
  24   15   31 1
  25   15   32 1
  26   16   17 ar
  27   16   21 ar
  28   17   18 ar
  29   17   33 1
  30   18   19 ar
  31   18   34 1
  32   19   20 ar
  33   19   22 1
  34   20   21 ar
  35   20   35 1
  36   22   23 1
  37   22   24 1
  38   22   25 1
  39   26   36 1
  40   26   37 1

#	End of record

