#	Name: ASD03240968
#	Creating user name:	WinNT
#	Creation time:	15. 06. 2019 20:35

#	Modifying user name:	WinNT
#	Modification time:	15. 06. 2019 20:35

#	Program:	/corina/corina34_cracker 3.40 0067  02.08.2006

@<TRIPOS>MOLECULE
ASD03240968
  65   71    0    0    0
SMALL
NO_CHARGES


@<TRIPOS>ATOM
   1 C1             0.2386     1.7505    -0.0810 C.3     
   2 C2             0.1972     0.2133    -0.0682 C.3     
   3 C3             1.5798     0.2488    -0.7404 C.3     
   4 C4             1.7717     1.6307    -0.0937 C.3     
   5 O5            -0.3003     2.3278    -1.2719 O.3     
   6 C6            -0.3157     2.3892     1.1941 C.3     
   7 C7             2.5309    -0.7983    -0.2206 C.ar    
   8 C8             3.5049    -1.3188    -1.0539 C.ar    
   9 C9             4.3788    -2.2774    -0.5837 C.ar    
  10 C10            4.2788    -2.7215     0.7348 C.ar    
  11 C11            3.2947    -2.1928     1.5701 C.ar    
  12 C12            2.4300    -1.2309     1.0897 C.ar    
  13 N13            6.8933    -6.6517    -0.0065 N.pl3   
  14 C14            7.7565    -7.6128     0.4458 C.2     
  15 N15            8.2120    -7.6232     1.7111 N.2     
  16 C16            7.8570    -6.7157     2.5837 C.2     
  17 C17            6.9371    -5.6570     2.1729 C.ar    
  18 C18            6.5203    -4.6593     3.0606 C.ar    
  19 C19            5.6433    -3.6899     2.5857 C.ar    
  20 C20            5.2134    -3.7504     1.2457 C.ar    
  21 N21            5.6294    -4.7111     0.4343 N.ar    
  22 C22            6.4631    -5.6514     0.8439 C.ar    
  23 C23            8.0013    -8.4652    -0.6223 C.2     
  24 C24            7.2746    -7.9988    -1.7106 C.2     
  25 N25            6.6110    -6.9266    -1.3500 N.2     
  26 C26            5.1657    -2.6072     3.4791 C.ar    
  27 C27            5.5123    -1.2822     3.2197 C.ar    
  28 C28            5.0644    -0.2786     4.0544 C.ar    
  29 C29            4.2732    -0.5855     5.1467 C.ar    
  30 C30            3.9265    -1.8987     5.4094 C.ar    
  31 C31            4.3637    -2.9099     4.5783 C.ar    
  32 C32            7.2485    -8.6261    -3.0805 C.3     
  33 C33            7.0068    -4.6354     4.4868 C.3     
  34 C34            8.5087    -4.4569     4.7179 C.3     
  35 C35            7.5454    -3.3092     5.0273 C.3     
  36 N36            1.5200     0.2889    -2.2076 N.3     
  37 H37            0.2097    -0.2155     0.9338 H       
  38 H38           -0.5849    -0.2077    -0.7001 H       
  39 H39            2.2608     2.3541    -0.7462 H       
  40 H40            2.2147     1.5894     0.9014 H       
  41 H41           -0.2770     3.2944    -1.2858 H       
  42 H42            0.2687     2.0552     2.0514 H       
  43 H43           -0.2543     3.4744     1.1131 H       
  44 H44           -1.3563     2.0929     1.3260 H       
  45 H45            3.5810    -0.9744    -2.0747 H       
  46 H46            5.1386    -2.6832    -1.2352 H       
  47 H47            3.2121    -2.5330     2.5918 H       
  48 H48            1.6702    -0.8178     1.7366 H       
  49 H49            8.2380    -6.7485     3.5937 H       
  50 H50            8.6420    -9.3345    -0.6095 H       
  51 H51            6.1303    -1.0415     2.3673 H       
  52 H52            5.3326     0.7483     3.8546 H       
  53 H53            3.9250     0.2032     5.7973 H       
  54 H54            3.3091    -2.1325     6.2640 H       
  55 H55            4.0887    -3.9343     4.7817 H       
  56 H56            6.4448    -9.3609    -3.1284 H       
  57 H57            7.0797    -7.8536    -3.8307 H       
  58 H58            8.2021    -9.1176    -3.2733 H       
  59 H59            6.4638    -5.2782     5.1796 H       
  60 H60            8.9537    -4.9821     5.5631 H       
  61 H61            9.1449    -4.3569     3.8385 H       
  62 H62            7.5479    -2.4541     4.3514 H       
  63 H63            7.3567    -3.0793     6.0759 H       
  64 H64            2.4463     0.3113    -2.6069 H       
  65 H65            0.9890    -0.4892    -2.5693 H       
@<TRIPOS>BOND
   1    1    2 1
   2    1    4 1
   3    1    5 1
   4    1    6 1
   5    2    3 1
   6    2   37 1
   7    2   38 1
   8    3    4 1
   9    3    7 1
  10    3   36 1
  11    4   39 1
  12    4   40 1
  13    5   41 1
  14    6   42 1
  15    6   43 1
  16    6   44 1
  17    7    8 ar
  18    7   12 ar
  19    8    9 ar
  20    8   45 1
  21    9   10 ar
  22    9   46 1
  23   10   11 ar
  24   10   20 1
  25   11   12 ar
  26   11   47 1
  27   12   48 1
  28   13   14 1
  29   13   22 1
  30   13   25 1
  31   14   15 1
  32   14   23 2
  33   15   16 2
  34   16   17 1
  35   16   49 1
  36   17   18 ar
  37   17   22 ar
  38   18   19 ar
  39   18   33 1
  40   19   20 ar
  41   19   26 1
  42   20   21 ar
  43   21   22 ar
  44   23   24 1
  45   23   50 1
  46   24   25 2
  47   24   32 1
  48   26   27 ar
  49   26   31 ar
  50   27   28 ar
  51   27   51 1
  52   28   29 ar
  53   28   52 1
  54   29   30 ar
  55   29   53 1
  56   30   31 ar
  57   30   54 1
  58   31   55 1
  59   32   56 1
  60   32   57 1
  61   32   58 1
  62   33   34 1
  63   33   35 1
  64   33   59 1
  65   34   35 1
  66   34   60 1
  67   34   61 1
  68   35   62 1
  69   35   63 1
  70   36   64 1
  71   36   65 1

#	End of record

