#	Name: ASD07930062
#	Creating user name:	WinNT
#	Creation time:	15. 06. 2019 21:11

#	Modifying user name:	WinNT
#	Modification time:	15. 06. 2019 21:11

#	Program:	/corina/corina34_cracker 3.40 0067  02.08.2006

@<TRIPOS>MOLECULE
ASD07930062
  51   53    0    0    0
SMALL
NO_CHARGES


@<TRIPOS>ATOM
   1 C1             0.7987     1.1553    -0.0210 C.ar    
   2 C2             1.7516     2.3202    -0.0974 C.3     
   3 C3             1.0575     3.5908     0.4035 C.3     
   4 C4             1.8397     4.8041    -0.0164 C.2     
   5 N5             2.6980     4.7859    -1.0466 N.am    
   6 C6             2.9543     3.6298    -1.7408 C.2     
   7 N7             2.1557     2.5424    -1.4973 N.pl3   
   8 C8             2.9873     2.0343     0.7584 C.3     
   9 N9             3.9439     3.5662    -2.6196 N.2     
  10 O10            1.6886     5.8376     0.5991 O.2     
  11 C11            3.3751     6.0244    -1.4391 C.3     
  12 C12            0.8580     0.1491    -0.9700 C.ar    
  13 C13           -0.0174    -0.9210    -0.8999 C.ar    
  14 C14           -0.9519    -0.9851     0.1194 C.ar    
  15 C15           -1.0107     0.0206     1.0689 C.ar    
  16 C16           -0.1323     1.0885     1.0013 C.ar    
  17 C17           -0.3307     3.6648    -0.1783 C.ar    
  18 C18           -1.4196     3.8493     0.6530 C.ar    
  19 C19           -2.6930     3.9171     0.1194 C.ar    
  20 C20           -2.8774     3.8008    -1.2457 C.ar    
  21 C21           -1.7884     3.6172    -2.0771 C.ar    
  22 C22           -0.5146     3.5537    -1.5438 C.ar    
  23 F23            1.7700     0.2117    -1.9647 F       
  24 F24           -1.8069    -2.0290     0.1873 F       
  25 F25           -0.1897     2.0700     1.9279 F       
  26 C26            4.8879     4.5067    -2.6293 C.2     
  27 C27            5.2125     5.2352    -3.9079 C.3     
  28 F28            6.2278     6.1675    -3.6685 F       
  29 F29            5.6408     4.3166    -4.8722 F       
  30 F30            4.0704     5.8980    -4.3699 F       
  31 O31            5.4869     4.7769    -1.6070 O.2     
  32 S32           -4.5448     3.8884    -1.9443 Du      
  33 F33           -4.0092     4.8742    -3.0991 F       
  34 F34           -4.2202     2.6178    -2.8784 F       
  35 F35           -4.8695     5.1589    -1.0103 F       
  36 F36           -6.0280     3.9663    -2.5658 F       
  37 F37           -5.0805     2.9026    -0.7896 F       
  38 H38            0.9910     3.5619     1.4911 H       
  39 H39            1.8702     1.9500    -2.2104 H       
  40 H40            3.4362     1.0918     0.4449 H       
  41 H41            3.7102     2.8405     0.6334 H       
  42 H42            2.6957     1.9670     1.8065 H       
  43 H43            4.3474     6.0778    -0.9494 H       
  44 H44            3.5118     6.0367    -2.5205 H       
  45 H45            2.7699     6.8800    -1.1396 H       
  46 H46            0.0284    -1.7056    -1.6406 H       
  47 H47           -1.7397    -0.0294     1.8641 H       
  48 H48           -1.2755     3.9401     1.7195 H       
  49 H49           -3.5438     4.0605     0.7689 H       
  50 H50           -1.9325     3.5260    -3.1435 H       
  51 H51            0.3362     3.4103    -2.1934 H       
@<TRIPOS>BOND
   1    1   12 ar
   2    1    2 1
   3    1   16 ar
   4    2    8 1
   5    2    3 1
   6    2    7 1
   7    3    4 1
   8    3   17 1
   9    3   38 1
  10    4    5 am
  11    4   10 2
  12    5    6 1
  13    5   11 1
  14    6    7 1
  15    6    9 2
  16    7   39 1
  17    8   40 1
  18    8   41 1
  19    8   42 1
  20    9   26 1
  21   11   43 1
  22   11   44 1
  23   11   45 1
  24   12   13 ar
  25   12   23 1
  26   13   14 ar
  27   13   46 1
  28   14   15 ar
  29   14   24 1
  30   15   16 ar
  31   15   47 1
  32   16   25 1
  33   17   18 ar
  34   17   22 ar
  35   18   19 ar
  36   18   48 1
  37   19   20 ar
  38   19   49 1
  39   20   21 ar
  40   20   32 1
  41   21   22 ar
  42   21   50 1
  43   22   51 1
  44   26   27 1
  45   26   31 2
  46   27   28 1
  47   27   29 1
  48   27   30 1
  49   32   33 1
  50   32   34 1
  51   32   35 1
  52   32   36 1
  53   32   37 1

#	End of record

