#	Name: ASD02030725
#	Creating user name:	WinNT
#	Creation time:	15. 06. 2019 20:15

#	Modifying user name:	WinNT
#	Modification time:	15. 06. 2019 20:15

#	Program:	/corina/corina34_cracker 3.40 0067  02.08.2006

@<TRIPOS>MOLECULE
ASD02030725
  38   41    0    0    0
SMALL
NO_CHARGES


@<TRIPOS>ATOM
   1 N1            -0.0169     1.3957     0.0097 N.2     
   2 N2             0.0021    -0.0041     0.0020 N.am    
   3 C3             1.1646    -0.6797    -0.0123 C.2     
   4 N4             2.3448    -0.0325    -0.0200 N.am    
   5 C5             2.3757     1.3164    -0.0131 C.2     
   6 C6             1.1074     2.0610     0.0026 C.2     
   7 O7             1.1494    -1.8958    -0.0178 O.2     
   8 O8             3.4386     1.9089    -0.0192 O.2     
   9 O9             1.1051     3.4197     0.0094 O.3     
  10 C10           -1.2627    -0.7434     0.0101 C.3     
  11 C11           -1.6892    -1.0085     1.4554 C.3     
  12 N12           -2.9539    -1.7478     1.4635 N.pl3   
  13 C13           -3.0638    -3.1269     1.4571 C.ar    
  14 C14           -2.1125    -4.1427     1.4425 C.ar    
  15 C15           -2.5117    -5.4617     1.4389 C.ar    
  16 C16           -3.8585    -5.7910     1.4500 C.ar    
  17 C17           -4.8153    -4.7994     1.4649 C.ar    
  18 C18           -4.4257    -3.4621     1.4683 C.ar    
  19 C19           -5.1697    -2.1891     1.4822 C.ar    
  20 C20           -6.5261    -1.8723     1.4964 C.ar    
  21 C21           -6.9206    -0.5519     1.5068 C.ar    
  22 C22           -5.9726     0.4600     1.5032 C.ar    
  23 C23           -4.6276     0.1606     1.4892 C.ar    
  24 C24           -4.2093    -1.1669     1.4845 C.ar    
  25 H25            3.1737    -0.5362    -0.0303 H       
  26 H26            0.2211     3.8114     0.0197 H       
  27 H27           -2.0303    -0.1556    -0.4933 H       
  28 H28           -1.1322    -1.6923    -0.5101 H       
  29 H29           -0.9215    -1.5962     1.9587 H       
  30 H30           -1.8197    -0.0596     1.9756 H       
  31 H31           -1.0608    -3.8970     1.4338 H       
  32 H32           -1.7689    -6.2456     1.4268 H       
  33 H33           -4.1587    -6.8285     1.4466 H       
  34 H34           -5.8638    -5.0583     1.4732 H       
  35 H35           -7.2662    -2.6589     1.4989 H       
  36 H36           -7.9718    -0.3045     1.5175 H       
  37 H37           -6.2912     1.4920     1.5111 H       
  38 H38           -3.8975     0.9564     1.4862 H       
@<TRIPOS>BOND
   1    1    2 1
   2    1    6 2
   3    2    3 am
   4    2   10 1
   5    3    4 am
   6    3    7 2
   7    4    5 am
   8    4   25 1
   9    5    6 1
  10    5    8 2
  11    6    9 1
  12    9   26 1
  13   10   11 1
  14   10   27 1
  15   10   28 1
  16   11   12 1
  17   11   29 1
  18   11   30 1
  19   12   13 1
  20   12   24 1
  21   13   14 ar
  22   13   18 ar
  23   14   15 ar
  24   14   31 1
  25   15   16 ar
  26   15   32 1
  27   16   17 ar
  28   16   33 1
  29   17   18 ar
  30   17   34 1
  31   18   19 1
  32   19   20 ar
  33   19   24 ar
  34   20   21 ar
  35   20   35 1
  36   21   22 ar
  37   21   36 1
  38   22   23 ar
  39   22   37 1
  40   23   24 ar
  41   23   38 1

#	End of record

