#	Name: ASD08070543
#	Creating user name:	WinNT
#	Creation time:	15. 06. 2019 21:15

#	Modifying user name:	WinNT
#	Modification time:	15. 06. 2019 21:15

#	Program:	/corina/corina34_cracker 3.40 0067  02.08.2006

@<TRIPOS>MOLECULE
ASD08070543
  32   32    0    0    0
SMALL
NO_CHARGES


@<TRIPOS>ATOM
   1 C1            -0.0168     1.3851     0.0097 C.ar    
   2 C2             0.0021    -0.0041     0.0020 C.ar    
   3 C3             1.2141    -0.6867    -0.0132 C.ar    
   4 C4             2.4007     0.0134    -0.0203 C.ar    
   5 C5             2.3850     1.4109    -0.0126 C.ar    
   6 C6             1.1654     2.0921     0.0022 C.ar    
   7 C7             3.6537     2.1652    -0.0197 C.2     
   8 O8             4.7143     1.5707    -0.0322 O.2     
   9 N9             3.6366     3.5128    -0.0123 N.am    
  10 C10            4.8959     4.2614    -0.0193 C.3     
  11 C11            5.3859     4.4217    -1.4598 C.3     
  12 C12            4.6716     5.6425     0.5997 C.3     
  13 C13            4.3021     5.4857     2.0762 C.3     
  14 O14           -1.1651    -0.6969     0.0099 O.3     
  15 Cl15           1.2315    -2.4226    -0.0227 Cl      
  16 C16           -2.3728     0.0667     0.0259 C.3     
  17 H17           -0.9598     1.9115     0.0170 H       
  18 H18            3.3415    -0.5168    -0.0314 H       
  19 H19            1.1494     3.1720     0.0078 H       
  20 H20            2.7905     3.9870    -0.0023 H       
  21 H21            5.6435     3.7203     0.5607 H       
  22 H22            5.5456     3.4378    -1.9008 H       
  23 H23            4.6383     4.9628    -2.0398 H       
  24 H24            6.3228     4.9787    -1.4650 H       
  25 H25            5.5847     6.2316     0.5143 H       
  26 H26            3.8619     6.1490     0.0744 H       
  27 H27            3.3890     4.8966     2.1616 H       
  28 H28            5.1118     4.9792     2.6015 H       
  29 H29            4.1424     6.4696     2.5172 H       
  30 H30           -2.3964     0.6904     0.9196 H       
  31 H31           -2.4141     0.7000    -0.8603 H       
  32 H32           -3.2291    -0.6077     0.0308 H       
@<TRIPOS>BOND
   1    1    2 ar
   2    1    6 ar
   3    1   17 1
   4    2    3 ar
   5    2   14 1
   6    3    4 ar
   7    3   15 1
   8    4    5 ar
   9    4   18 1
  10    5    6 ar
  11    5    7 1
  12    6   19 1
  13    7    8 2
  14    7    9 am
  15    9   10 1
  16    9   20 1
  17   10   11 1
  18   10   12 1
  19   10   21 1
  20   11   22 1
  21   11   23 1
  22   11   24 1
  23   12   13 1
  24   12   25 1
  25   12   26 1
  26   13   27 1
  27   13   28 1
  28   13   29 1
  29   14   16 1
  30   16   30 1
  31   16   31 1
  32   16   32 1

#	End of record

