#	Name: ASD05430737
#	Creating user name:	WinNT
#	Creation time:	15. 06. 2019 21:00

#	Modifying user name:	WinNT
#	Modification time:	15. 06. 2019 21:00

#	Program:	/corina/corina34_cracker 3.40 0067  02.08.2006

@<TRIPOS>MOLECULE
ASD05430737
  69   74    0    0    0
SMALL
NO_CHARGES


@<TRIPOS>ATOM
   1 C1             0.5573     0.9944     0.2084 C.2     
   2 C2             0.4830    -0.3240    -0.2673 C.2     
   3 N3            -0.7284    -0.9890    -0.2614 N.pl3   
   4 C4            -1.6868    -0.4709     0.6006 C.2     
   5 N5            -1.7557     0.8869     0.8330 N.am    
   6 C6            -0.6494     1.6680     0.7017 C.2     
   7 O7            -0.6593     2.8531     0.9800 O.2     
   8 C8            -3.0312     1.4936     1.2221 C.3     
   9 C9            -2.9155     2.0598     2.6387 C.3     
  10 C10           -3.3720     2.6050     0.2631 C.ar    
  11 C11           -3.1108     2.4573    -1.0860 C.ar    
  12 C12           -3.4236     3.4779    -1.9681 C.ar    
  13 C13           -3.9980     4.6463    -1.4982 C.ar    
  14 C14           -4.2591     4.7931    -0.1468 C.ar    
  15 C15           -3.9507     3.7690     0.7326 C.ar    
  16 N16            1.8308     1.3940     0.0954 N.2     
  17 C17            2.5423     0.4138    -0.4186 C.2     
  18 N18            1.7231    -0.6685    -0.6544 N.pl3   
  19 C19            3.9926     0.4658    -0.6995 C.ar    
  20 C20            4.6387     1.6976    -0.8141 C.ar    
  21 C21            5.9956     1.7417    -1.0770 C.ar    
  22 C22            6.7148     0.5571    -1.2269 C.ar    
  23 C23            6.0711    -0.6678    -1.1131 C.ar    
  24 C24            4.7197    -0.7173    -0.8449 C.ar    
  25 N25            8.0907     0.6026    -1.4934 N.pl3   
  26 C26            8.7024     1.3379    -2.4576 C.2     
  27 N27            9.9876     1.1183    -2.3954 N.2     
  28 C28           10.2424     0.2492    -1.4062 C.2     
  29 C29            9.0730    -0.0822    -0.8261 C.2     
  30 C30           11.6026    -0.2640    -1.0092 C.3     
  31 F31           -4.8193     5.9332     0.3132 F       
  32 F32           -3.1678     3.3334    -3.2868 F       
  33 C33           -0.9842    -2.1585    -1.1058 C.3     
  34 N34           -2.5264    -1.2730     1.1931 N.2     
  35 C35           -2.3626    -2.7238     1.0728 C.3     
  36 C36           -1.4633    -3.4204     2.0960 C.3     
  37 C37           -2.9814    -3.5977     2.1657 C.3     
  38 C38            2.1289    -1.9569    -1.2215 C.3     
  39 O39            6.6279     2.9400    -1.1897 O.3     
  40 C40            5.8288     4.1131    -1.0249 C.3     
  41 H41           -3.8161     0.7377     1.1959 H       
  42 H42           -2.6690     1.2560     3.3323 H       
  43 H43           -2.1307     2.8158     2.6649 H       
  44 H44           -3.8645     2.5112     2.9282 H       
  45 H45           -2.6623     1.5457    -1.4524 H       
  46 H46           -4.2419     5.4430    -2.1854 H       
  47 H47           -4.1547     3.8831     1.7870 H       
  48 H48            4.0799     2.6146    -0.6981 H       
  49 H49            6.6311    -1.5838    -1.2301 H       
  50 H50            4.2214    -1.6714    -0.7566 H       
  51 H51            8.2081     1.9941    -3.1587 H       
  52 H52            8.9350    -0.7620     0.0017 H       
  53 H53           12.0324     0.3932    -0.2532 H       
  54 H54           11.5067    -1.2710    -0.6031 H       
  55 H55           12.2524    -0.2853    -1.8840 H       
  56 H56           -0.7147    -3.0645    -0.5629 H       
  57 H57           -2.0417    -2.1930    -1.3679 H       
  58 H58           -0.3867    -2.0882    -2.0147 H       
  59 H59           -2.3634    -3.1143     0.0552 H       
  60 H60           -0.8727    -4.2694     1.7516 H       
  61 H61           -0.9935    -2.7993     2.8587 H       
  62 H62           -3.5104    -3.0931     2.9742 H       
  63 H63           -3.3896    -4.5632     1.8672 H       
  64 H64            2.4563    -2.6196    -0.4204 H       
  65 H65            1.2838    -2.4068    -1.7426 H       
  66 H66            2.9484    -1.8030    -1.9235 H       
  67 H67            5.0415     4.1254    -1.7787 H       
  68 H68            5.3805     4.1108    -0.0314 H       
  69 H69            6.4548     4.9981    -1.1390 H       
@<TRIPOS>BOND
   1    1    2 2
   2    1   16 1
   3    1    6 1
   4    2    3 1
   5    2   18 1
   6    3    4 1
   7    3   33 1
   8    4    5 1
   9    4   34 2
  10    5    6 am
  11    5    8 1
  12    6    7 2
  13    8    9 1
  14    8   10 1
  15    8   41 1
  16    9   42 1
  17    9   43 1
  18    9   44 1
  19   10   11 ar
  20   10   15 ar
  21   11   12 ar
  22   11   45 1
  23   12   13 ar
  24   12   32 1
  25   13   14 ar
  26   13   46 1
  27   14   15 ar
  28   14   31 1
  29   15   47 1
  30   16   17 2
  31   17   18 1
  32   17   19 1
  33   18   38 1
  34   19   20 ar
  35   19   24 ar
  36   20   21 ar
  37   20   48 1
  38   21   22 ar
  39   21   39 1
  40   22   23 ar
  41   22   25 1
  42   23   24 ar
  43   23   49 1
  44   24   50 1
  45   25   26 1
  46   25   29 1
  47   26   27 2
  48   26   51 1
  49   27   28 1
  50   28   29 2
  51   28   30 1
  52   29   52 1
  53   30   53 1
  54   30   54 1
  55   30   55 1
  56   33   56 1
  57   33   57 1
  58   33   58 1
  59   34   35 1
  60   35   36 1
  61   35   37 1
  62   35   59 1
  63   36   37 1
  64   36   60 1
  65   36   61 1
  66   37   62 1
  67   37   63 1
  68   38   64 1
  69   38   65 1
  70   38   66 1
  71   39   40 1
  72   40   67 1
  73   40   68 1
  74   40   69 1

#	End of record

