#	Name: ASD08170366
#	Creating user name:	WinNT
#	Creation time:	15. 06. 2019 21:17

#	Modifying user name:	WinNT
#	Modification time:	15. 06. 2019 21:17

#	Program:	/corina/corina34_cracker 3.40 0067  02.08.2006

@<TRIPOS>MOLECULE
ASD08170366
  65   68    0    0    0
SMALL
NO_CHARGES


@<TRIPOS>ATOM
   1 C1            -0.0155     1.2910     0.0091 C.2     
   2 N2             0.0021    -0.0041     0.0020 N.2     
   3 N3            -1.1192    -0.5842     0.0096 N.2     
   4 C4            -2.1834     0.1604     0.0237 C.2     
   5 S5            -1.7028     1.8047     0.0357 S.3     
   6 C6             1.1892     2.1964     0.0025 C.3     
   7 C7             2.8059     3.4301    -1.4489 C.3     
   8 C8             3.1936     3.7400    -2.8718 C.2     
   9 C9             4.3448     4.6111    -3.3336 C.3     
  10 C10            4.2435     4.5536    -4.8451 C.2     
  11 N11            3.2216     3.7886    -5.1026 N.2     
  12 N12            2.6155     3.3126    -3.9447 N.2     
  13 N13            5.0614     5.1801    -5.7560 N.am    
  14 N14           -3.4954    -0.3008     0.0334 N.am    
  15 C15            1.5828     2.5110    -1.4422 C.3     
  16 C16            4.8391     5.0293    -7.0767 C.2     
  17 O17            3.9180     4.3411    -7.4618 O.2     
  18 C18            5.7354     5.7158    -8.0749 C.3     
  19 C19            5.2757     5.3873    -9.4720 C.ar    
  20 C20            5.6727     7.2294    -7.8601 C.3     
  21 O21            6.2173     7.5516    -6.5788 O.3     
  22 C22            6.1303     4.7436   -10.3473 C.ar    
  23 C23            3.9976     5.7247    -9.8764 C.ar    
  24 C24            3.5760     5.4234   -11.1579 C.ar    
  25 C25            4.4326     4.7851   -12.0352 C.ar    
  26 C26            5.7087     4.4423   -11.6289 C.ar    
  27 C27           -3.7441    -1.6254     0.0287 C.2     
  28 C28           -5.1658    -2.1251     0.0391 C.3     
  29 O29           -2.8238    -2.4152     0.0161 O.2     
  30 C30           -5.1686    -3.6321     0.0313 C.ar    
  31 C31           -5.7780    -4.3167    -1.0036 C.ar    
  32 C32           -5.7806    -5.6991    -1.0108 C.ar    
  33 C33           -5.1735    -6.3968     0.0166 C.ar    
  34 C34           -4.5633    -5.7121     1.0509 C.ar    
  35 C35           -4.5569    -4.3298     1.0559 C.ar    
  36 C36           -5.8746    -1.6204     1.2976 C.3     
  37 O37           -5.9750    -0.1958     1.2488 O.3     
  38 H38            0.9501     3.1232     0.5240 H       
  39 H39            2.0193     1.7002     0.5054 H       
  40 H40            3.6360     2.9340    -0.9460 H       
  41 H41            2.5668     4.3569    -0.9274 H       
  42 H42            4.2191     5.6340    -2.9787 H       
  43 H43            5.2966     4.2006    -2.9964 H       
  44 H44            5.7982     5.7306    -5.4480 H       
  45 H45           -4.2314     0.3309     0.0435 H       
  46 H46            1.8219     1.5842    -1.9637 H       
  47 H47            0.7527     3.0071    -1.9450 H       
  48 H48            6.7608     5.3718    -7.9394 H       
  49 H49            6.2502     7.7308    -8.6368 H       
  50 H50            4.6353     7.5605    -7.9076 H       
  51 H51            6.2098     8.4967    -6.3746 H       
  52 H52            7.1275     4.4763   -10.0301 H       
  53 H53            3.3284     6.2234    -9.1909 H       
  54 H54            2.5772     5.6863   -11.4736 H       
  55 H55            4.1031     4.5493   -13.0363 H       
  56 H56            6.3779     3.9436   -12.3143 H       
  57 H57           -5.6871    -1.7562    -0.8442 H       
  58 H58           -6.2523    -3.7716    -1.8062 H       
  59 H59           -6.2573    -6.2339    -1.8189 H       
  60 H60           -5.1761    -7.4767     0.0113 H       
  61 H61           -4.0892    -6.2572     1.8538 H       
  62 H62           -4.0802    -3.7949     1.8640 H       
  63 H63           -6.8735    -2.0534     1.3504 H       
  64 H64           -5.3040    -1.9144     2.1786 H       
  65 H65           -6.4147     0.1941     2.0167 H       
@<TRIPOS>BOND
   1    1    2 2
   2    1    6 1
   3    1    5 1
   4    2    3 1
   5    3    4 2
   6    4    5 1
   7    4   14 1
   8    6   15 1
   9    6   38 1
  10    6   39 1
  11    7    8 1
  12    7   15 1
  13    7   40 1
  14    7   41 1
  15    8    9 1
  16    8   12 2
  17    9   10 1
  18    9   42 1
  19    9   43 1
  20   10   11 2
  21   10   13 1
  22   11   12 1
  23   13   16 am
  24   13   44 1
  25   14   27 am
  26   14   45 1
  27   15   46 1
  28   15   47 1
  29   16   17 2
  30   16   18 1
  31   18   19 1
  32   18   20 1
  33   18   48 1
  34   19   22 ar
  35   19   23 ar
  36   20   21 1
  37   20   49 1
  38   20   50 1
  39   21   51 1
  40   22   26 ar
  41   22   52 1
  42   23   24 ar
  43   23   53 1
  44   24   25 ar
  45   24   54 1
  46   25   26 ar
  47   25   55 1
  48   26   56 1
  49   27   28 1
  50   27   29 2
  51   28   30 1
  52   28   36 1
  53   28   57 1
  54   30   31 ar
  55   30   35 ar
  56   31   32 ar
  57   31   58 1
  58   32   33 ar
  59   32   59 1
  60   33   34 ar
  61   33   60 1
  62   34   35 ar
  63   34   61 1
  64   35   62 1
  65   36   37 1
  66   36   63 1
  67   36   64 1
  68   37   65 1

#	End of record

