#	Name: ASD01890045
#	Creating user name:	WinNT
#	Creation time:	15. 06. 2019 19:50

#	Modifying user name:	WinNT
#	Modification time:	15. 06. 2019 19:50

#	Program:	/corina/corina34_cracker 3.40 0067  02.08.2006

@<TRIPOS>MOLECULE
ASD01890045
  37   39    0    0    0
SMALL
NO_CHARGES


@<TRIPOS>ATOM
   1 C1            -0.0167     1.3836     0.0096 C.ar    
   2 C2             0.0021    -0.0041     0.0020 C.ar    
   3 C3            -1.1915    -0.7068     0.0101 C.ar    
   4 C4            -2.4163    -0.0088     0.0260 C.ar    
   5 C5            -2.4201     1.3773     0.0335 C.ar    
   6 C6            -1.2191     2.0680     0.0306 C.ar    
   7 C7            -1.5444    -2.1423     0.0059 C.2     
   8 N8            -2.8849    -2.2539     0.0186 N.am    
   9 C9            -3.4712    -1.0433     0.0309 C.2     
  10 O10           -0.7561    -3.0661    -0.0072 O.2     
  11 Cl11           1.4780     2.2664     0.0001 Cl      
  12 O12           -4.6678    -0.8354     0.0446 O.2     
  13 C13           -3.6107    -3.5265     0.0190 C.3     
  14 N14           -3.8390    -3.9581     1.4003 N.pl3   
  15 C15           -5.0551    -3.5453     2.1052 C.3     
  16 C16           -2.8967    -4.7635     2.0454 C.ar    
  17 C17           -3.1117    -5.1734     3.3549 C.ar    
  18 C18           -2.1787    -5.9694     3.9901 C.ar    
  19 C19           -1.0305    -6.3584     3.3230 C.ar    
  20 C20           -0.8134    -5.9511     2.0184 C.ar    
  21 C21           -1.7459    -5.1603     1.3763 C.ar    
  22 Cl22           0.1402    -7.3589     4.1244 Cl      
  23 C23           -6.1404    -4.5649     1.8737 C.2     
  24 O24           -5.9207    -5.5365     1.1900 O.2     
  25 O25           -7.3513    -4.3935     2.4270 O.3     
  26 H26            0.9432    -0.5337    -0.0105 H       
  27 H27           -3.3557     1.9168     0.0453 H       
  28 H28           -1.2215     3.1480     0.0368 H       
  29 H29           -4.5689    -3.3984    -0.4847 H       
  30 H30           -3.0228    -4.2803    -0.5047 H       
  31 H31           -4.8485    -3.4706     3.1728 H       
  32 H32           -5.3814    -2.5756     1.7295 H       
  33 H33           -4.0076    -4.8698     3.8761 H       
  34 H34           -2.3453    -6.2881     5.0084 H       
  35 H35            0.0840    -6.2557     1.5004 H       
  36 H36           -1.5762    -4.8430     0.3580 H       
  37 H37           -8.0151    -5.0740     2.2501 H       
@<TRIPOS>BOND
   1    1    2 ar
   2    1   11 1
   3    1    6 ar
   4    2    3 ar
   5    2   26 1
   6    3    4 ar
   7    3    7 1
   8    4    5 ar
   9    4    9 1
  10    5    6 ar
  11    5   27 1
  12    6   28 1
  13    7    8 am
  14    7   10 2
  15    8    9 am
  16    8   13 1
  17    9   12 2
  18   13   14 1
  19   13   29 1
  20   13   30 1
  21   14   15 1
  22   14   16 1
  23   15   23 1
  24   15   31 1
  25   15   32 1
  26   16   17 ar
  27   16   21 ar
  28   17   18 ar
  29   17   33 1
  30   18   19 ar
  31   18   34 1
  32   19   20 ar
  33   19   22 1
  34   20   21 ar
  35   20   35 1
  36   21   36 1
  37   23   24 2
  38   23   25 1
  39   25   37 1

#	End of record

