#	Name: ASD00191023
#	Creating user name:	WinNT
#	Creation time:	15. 06. 2019 18:33

#	Modifying user name:	WinNT
#	Modification time:	15. 06. 2019 18:33

#	Program:	/corina/corina34_cracker 3.40 0067  02.08.2006

@<TRIPOS>MOLECULE
ASD00191023
  48   52    0    0    0
SMALL
NO_CHARGES


@<TRIPOS>ATOM
   1 C1            -0.0142     1.3576     0.0076 C.ar    
   2 C2             0.0049    -0.0052    -0.0072 C.ar    
   3 C3             1.2068    -0.7047    -0.0363 C.ar    
   4 C4             2.3990    -0.0413    -0.0512 C.ar    
   5 C5             2.4137     1.3571    -0.0371 C.ar    
   6 C6             1.1925     2.0734    -0.0070 C.ar    
   7 C7             3.6588     2.1125    -0.0525 C.ar    
   8 C8             3.5789     3.5085    -0.0371 C.ar    
   9 C9             2.3057     4.1211    -0.0072 C.ar    
  10 N10            1.1983     3.4147     0.0062 N.ar    
  11 N11            4.9899     1.8001    -0.0805 N.pl3   
  12 C12            5.6815     2.9726    -0.0819 C.2     
  13 N13            4.8504     3.9749    -0.0563 N.2     
  14 C14            7.1835     3.0926    -0.1080 C.3     
  15 C15            7.7279     2.9941     1.3184 C.3     
  16 C16            9.2528     3.1161     1.2918 C.3     
  17 C17            9.8400     1.9869     0.4427 C.3     
  18 C18            9.2955     2.0854    -0.9838 C.3     
  19 C19            7.7706     1.9634    -0.9572 C.3     
  20 N20            2.2232     5.5040     0.0081 N.pl3   
  21 C21            0.9762     6.1313    -0.0821 C.ar    
  22 C22            0.7430     7.3162     0.6031 C.ar    
  23 C23           -0.4910     7.9345     0.5122 C.ar    
  24 C24           -1.4936     7.3711    -0.2626 C.ar    
  25 C25           -1.2614     6.1895    -0.9454 C.ar    
  26 C26           -0.0284     5.5726    -0.8619 C.ar    
  27 F27           -2.6985     7.9757    -0.3507 F       
  28 F28           -0.7196     9.0872     1.1786 F       
  29 H29           -0.9563     1.8854     0.0260 H       
  30 H30           -0.9274    -0.5502     0.0042 H       
  31 H31            1.1962    -1.7846    -0.0468 H       
  32 H32            3.3269    -0.5935    -0.0734 H       
  33 H33            5.3708     0.9082    -0.0965 H       
  34 H34            7.4636     4.0542    -0.5383 H       
  35 H35            7.3096     3.7986     1.9233 H       
  36 H36            7.4477     2.0326     1.7487 H       
  37 H37            9.5330     4.0776     0.8616 H       
  38 H38            9.6407     3.0459     2.3080 H       
  39 H39           10.9264     2.0737     0.4238 H       
  40 H40            9.5598     1.0254     0.8729 H       
  41 H41            9.5757     3.0469    -1.4140 H       
  42 H42            9.7139     1.2809    -1.5887 H       
  43 H43            7.4905     1.0019    -0.5269 H       
  44 H44            7.3828     2.0336    -1.9734 H       
  45 H45            3.0302     6.0372     0.0815 H       
  46 H46            1.5241     7.7544     1.2066 H       
  47 H47           -2.0438     5.7519    -1.5477 H       
  48 H48            0.1515     4.6508    -1.3951 H       
@<TRIPOS>BOND
   1    1    2 ar
   2    1    6 ar
   3    1   29 1
   4    2    3 ar
   5    2   30 1
   6    3    4 ar
   7    3   31 1
   8    4    5 ar
   9    4   32 1
  10    5    6 ar
  11    5    7 ar
  12    6   10 ar
  13    7    8 ar
  14    7   11 1
  15    8    9 ar
  16    8   13 1
  17    9   10 ar
  18    9   20 1
  19   11   12 1
  20   11   33 1
  21   12   13 2
  22   12   14 1
  23   14   15 1
  24   14   19 1
  25   14   34 1
  26   15   16 1
  27   15   35 1
  28   15   36 1
  29   16   17 1
  30   16   37 1
  31   16   38 1
  32   17   18 1
  33   17   39 1
  34   17   40 1
  35   18   19 1
  36   18   41 1
  37   18   42 1
  38   19   43 1
  39   19   44 1
  40   20   21 1
  41   20   45 1
  42   21   22 ar
  43   21   26 ar
  44   22   23 ar
  45   22   46 1
  46   23   24 ar
  47   23   28 1
  48   24   25 ar
  49   24   27 1
  50   25   26 ar
  51   25   47 1
  52   26   48 1

#	End of record

