#	Name: ASD01915129
#	Creating user name:	WinNT
#	Creation time:	15. 06. 2019 20:04

#	Modifying user name:	WinNT
#	Modification time:	15. 06. 2019 20:04

#	Program:	/corina/corina34_cracker 3.40 0067  02.08.2006

@<TRIPOS>MOLECULE
ASD01915129
  37   40    0    0    0
SMALL
NO_CHARGES


@<TRIPOS>ATOM
   1 C1            -0.0169     1.3924     0.0097 C.ar    
   2 C2             0.0021    -0.0041     0.0020 C.ar    
   3 N3            -1.1430    -0.6903     0.0092 N.ar    
   4 C4            -2.3136    -0.0965     0.0236 C.ar    
   5 C5            -2.4136     1.2863     0.0316 C.ar    
   6 C6            -1.2657     2.0479     0.0305 C.ar    
   7 C7             1.3286     1.9586    -0.0001 C.2     
   8 C8             2.3058     1.0549    -0.0143 C.2     
   9 S9             1.6661    -0.5766    -0.0169 S.3     
  10 C10            1.5853     3.4181     0.0048 C.ar    
  11 C11            1.2153     4.1896     1.1051 C.ar    
  12 C12            1.4573     5.5506     1.1036 C.ar    
  13 C13            2.0658     6.1465     0.0108 C.ar    
  14 C14            2.4343     5.3840    -1.0829 C.ar    
  15 C15            2.2030     4.0238    -1.0892 C.ar    
  16 S16            4.0232     1.4487    -0.0285 S.o2    
  17 O17            4.6883     0.3232    -0.5854 O.2     
  18 O18            4.1298     2.7594    -0.5670 O.2     
  19 C19            4.5476     1.5563     1.6502 C.ar    
  20 C20            5.0208     0.4314     2.2996 C.ar    
  21 C21            4.4909     2.7667     2.3155 C.ar    
  22 C22            4.9026     2.8518     3.6322 C.ar    
  23 C23            5.3709     1.7252     4.2844 C.ar    
  24 C24            5.4318     0.5150     3.6166 C.ar    
  25 Cl25           5.8882     1.8313     5.9382 Cl      
  26 F26            1.0997     6.3007     2.1689 F       
  27 H27           -3.2129    -0.6945     0.0290 H       
  28 H28           -3.3830     1.7623     0.0427 H       
  29 H29           -1.3209     3.1265     0.0366 H       
  30 H30            0.7403     3.7253     1.9567 H       
  31 H31            2.2527     7.2102     0.0128 H       
  32 H32            2.9080     5.8539    -1.9321 H       
  33 H33            2.4919     3.4302    -1.9440 H       
  34 H34            5.0689    -0.5130     1.7780 H       
  35 H35            4.1253     3.6461     1.8062 H       
  36 H36            4.8590     3.7977     4.1517 H       
  37 H37            5.7970    -0.3649     4.1253 H       
@<TRIPOS>BOND
   1    1    2 ar
   2    1    7 1
   3    1    6 ar
   4    2    3 ar
   5    2    9 1
   6    3    4 ar
   7    4    5 ar
   8    4   27 1
   9    5    6 ar
  10    5   28 1
  11    6   29 1
  12    7    8 2
  13    7   10 1
  14    8    9 1
  15    8   16 1
  16   10   11 ar
  17   10   15 ar
  18   11   12 ar
  19   11   30 1
  20   12   13 ar
  21   12   26 1
  22   13   14 ar
  23   13   31 1
  24   14   15 ar
  25   14   32 1
  26   15   33 1
  27   16   17 2
  28   16   18 2
  29   16   19 1
  30   19   20 ar
  31   19   21 ar
  32   20   24 ar
  33   20   34 1
  34   21   22 ar
  35   21   35 1
  36   22   23 ar
  37   22   36 1
  38   23   24 ar
  39   23   25 1
  40   24   37 1

#	End of record

