#	Name: ASD01804006
#	Creating user name:	WinNT
#	Creation time:	15. 06. 2019 19:23

#	Modifying user name:	WinNT
#	Modification time:	15. 06. 2019 19:23

#	Program:	/corina/corina34_cracker 3.40 0067  02.08.2006

@<TRIPOS>MOLECULE
ASD01804006
  31   33    0    0    0
SMALL
NO_CHARGES


@<TRIPOS>ATOM
   1 C1            -0.0159     1.3231     0.0093 C.ar    
   2 N2             0.0021    -0.0041     0.0020 N.ar    
   3 C3            -1.1111    -0.7099     0.0093 C.ar    
   4 C4            -2.3453    -0.0885     0.0249 C.ar    
   5 C5            -2.4098     1.2985     0.0330 C.ar    
   6 C6            -1.2267     2.0149     0.0304 C.ar    
   7 C7             1.2604     2.0755     0.0012 C.2     
   8 C8             2.4581     1.4613    -0.0136 C.2     
   9 S9             3.7119     2.6995    -0.0188 S.3     
  10 C10            2.4752     3.9530    -0.0003 C.2     
  11 N11            1.3023     3.4011     0.0023 N.2     
  12 N12            2.7186     5.3199     0.0048 N.am    
  13 C13            3.9857     5.7788    -0.0053 C.2     
  14 C14            4.2447     7.2333     0.0002 C.ar    
  15 O15            4.9157     4.9959    -0.0188 O.2     
  16 C16            5.5565     7.7118    -0.0103 C.ar    
  17 C17            5.7918     9.0704    -0.0056 C.ar    
  18 C18            4.7302     9.9600     0.0098 C.ar    
  19 C19            3.4267     9.4914     0.0202 C.ar    
  20 C20            3.1786     8.1351     0.0099 C.ar    
  21 Cl21           5.0345    11.6691     0.0167 Cl      
  22 H22           -1.0579    -1.7885     0.0026 H       
  23 H23           -3.2513    -0.6763     0.0304 H       
  24 H24           -3.3628     1.8067     0.0448 H       
  25 H25           -1.2403     3.0948     0.0369 H       
  26 H26            2.6222     0.3938    -0.0209 H       
  27 H27            1.9766     5.9446     0.0156 H       
  28 H28            6.3851     7.0192    -0.0216 H       
  29 H29            6.8060     9.4418    -0.0137 H       
  30 H30            2.6031    10.1899     0.0326 H       
  31 H31            2.1619     7.7709     0.0177 H       
@<TRIPOS>BOND
   1    1    2 ar
   2    1    7 1
   3    1    6 ar
   4    2    3 ar
   5    3    4 ar
   6    3   22 1
   7    4    5 ar
   8    4   23 1
   9    5    6 ar
  10    5   24 1
  11    6   25 1
  12    7    8 2
  13    7   11 1
  14    8    9 1
  15    8   26 1
  16    9   10 1
  17   10   11 2
  18   10   12 1
  19   12   13 am
  20   12   27 1
  21   13   14 1
  22   13   15 2
  23   14   16 ar
  24   14   20 ar
  25   16   17 ar
  26   16   28 1
  27   17   18 ar
  28   17   29 1
  29   18   19 ar
  30   18   21 1
  31   19   20 ar
  32   19   30 1
  33   20   31 1

#	End of record

