#	Name: ASD06170138
#	Creating user name:	WinNT
#	Creation time:	15. 06. 2019 21:05

#	Modifying user name:	WinNT
#	Modification time:	15. 06. 2019 21:05

#	Program:	/corina/corina34_cracker 3.40 0067  02.08.2006

@<TRIPOS>MOLECULE
ASD06170138
  64   68    0    0    0
SMALL
NO_CHARGES


@<TRIPOS>ATOM
   1 N1             0.0752     1.2208    -0.6072 N.pl3   
   2 N2             0.0439    -0.1690    -0.4595 N.am    
   3 C3             1.2753    -0.5912    -0.1050 C.2     
   4 C4             2.1228     0.6093    -0.0279 C.2     
   5 C5             1.3141     1.6818    -0.3498 C.2     
   6 C6             3.5474     0.6577     0.3225 C.2     
   7 O7             4.1315     1.7249     0.3492 O.2     
   8 N8             4.2085    -0.4799     0.6147 N.am    
   9 C9            -1.0764    -0.9850    -0.6472 C.ar    
  10 C10           -1.9126    -0.7792    -1.7369 C.ar    
  11 C11           -3.0180    -1.5867    -1.9194 C.ar    
  12 C12           -3.2930    -2.5990    -1.0183 C.ar    
  13 C13           -2.4625    -2.8066     0.0677 C.ar    
  14 C14           -1.3520    -2.0065     0.2525 C.ar    
  15 O15            1.6178    -1.7391     0.1093 O.2     
  16 C16            1.7455     3.1246    -0.4041 C.3     
  17 C17           -1.0685     2.0519    -0.9914 C.3     
  18 C18           -1.6914     2.6724     0.2607 C.3     
  19 C19           -2.9582     3.4384    -0.1259 C.3     
  20 C20           -2.0482     1.5655     1.2549 C.3     
  21 O21           -0.7569     3.5703     0.8628 O.3     
  22 C22            5.5973    -0.4566     0.7928 C.ar    
  23 C23            6.2221     0.7040     1.2303 C.ar    
  24 C24            7.5929     0.7259     1.4062 C.ar    
  25 C25            8.3446    -0.4135     1.1451 C.ar    
  26 C26            7.7198    -1.5715     0.7083 C.ar    
  27 C27            6.3491    -1.5954     0.5374 C.ar    
  28 O28            9.6935    -0.3924     1.3176 O.3     
  29 C29           12.0102    -0.4757     4.1671 C.ar    
  30 C30           11.5501    -0.4781     2.8387 C.ar    
  31 C31           10.1734    -0.3929     2.5866 C.ar    
  32 C32            9.3161    -0.3087     3.6767 C.ar    
  33 C33            9.8439    -0.3117     4.9558 C.ar    
  34 N34           11.1411    -0.3935     5.1679 N.ar    
  35 N35           13.3806    -0.5616     4.1178 N.pl3   
  36 C36           12.7401    -0.5776     1.9925 C.2     
  37 C37           13.8001    -0.6179     2.8148 C.2     
  38 F38            8.2018     1.8544     1.8314 F       
  39 H39            3.7223    -1.3147     0.7017 H       
  40 H40           -1.6988     0.0116    -2.4406 H       
  41 H41           -3.6686    -1.4272    -2.7666 H       
  42 H42           -4.1585    -3.2286    -1.1629 H       
  43 H43           -2.6801    -3.5980     0.7696 H       
  44 H44           -0.7013    -2.1720     1.0984 H       
  45 H45            1.6021     3.5838     0.5740 H       
  46 H46            2.7986     3.1788    -0.6800 H       
  47 H47            1.1479     3.6549    -1.1456 H       
  48 H48           -0.7334     2.8439    -1.6611 H       
  49 H49           -1.8106     1.4362    -1.4995 H       
  50 H50           -3.6710     2.7534    -0.5851 H       
  51 H51           -3.4020     3.8804     0.7661 H       
  52 H52           -2.7040     4.2269    -0.8342 H       
  53 H53           -1.1457     1.0198     1.5304 H       
  54 H54           -2.4920     2.0075     2.1470 H       
  55 H55           -2.7610     0.8806     0.7957 H       
  56 H56           -1.0855     4.0012     1.6637 H       
  57 H57            5.6372     1.5891     1.4327 H       
  58 H58            8.3045    -2.4567     0.5056 H       
  59 H59            5.8627    -2.4993     0.2015 H       
  60 H60            8.2486    -0.2411     3.5272 H       
  61 H61            9.1753    -0.2458     5.8014 H       
  62 H62           13.9650    -0.5798     4.8917 H       
  63 H63           12.7616    -0.6061     0.9131 H       
  64 H64           14.8298    -0.6890     2.4970 H       
@<TRIPOS>BOND
   1    1    2 1
   2    1    5 1
   3    1   17 1
   4    2    3 am
   5    2    9 1
   6    3    4 1
   7    3   15 2
   8    4    5 2
   9    4    6 1
  10    5   16 1
  11    6    7 2
  12    6    8 am
  13    8   22 1
  14    8   39 1
  15    9   10 ar
  16    9   14 ar
  17   10   11 ar
  18   10   40 1
  19   11   12 ar
  20   11   41 1
  21   12   13 ar
  22   12   42 1
  23   13   14 ar
  24   13   43 1
  25   14   44 1
  26   16   45 1
  27   16   46 1
  28   16   47 1
  29   17   18 1
  30   17   48 1
  31   17   49 1
  32   18   19 1
  33   18   20 1
  34   18   21 1
  35   19   50 1
  36   19   51 1
  37   19   52 1
  38   20   53 1
  39   20   54 1
  40   20   55 1
  41   21   56 1
  42   22   23 ar
  43   22   27 ar
  44   23   24 ar
  45   23   57 1
  46   24   25 ar
  47   24   38 1
  48   25   26 ar
  49   25   28 1
  50   26   27 ar
  51   26   58 1
  52   27   59 1
  53   28   31 1
  54   29   30 ar
  55   29   34 ar
  56   29   35 1
  57   30   31 ar
  58   30   36 1
  59   31   32 ar
  60   32   33 ar
  61   32   60 1
  62   33   34 ar
  63   33   61 1
  64   35   37 1
  65   35   62 1
  66   36   37 2
  67   36   63 1
  68   37   64 1

#	End of record

