#	Name: ASD00170792
#	Creating user name:	WinNT
#	Creation time:	15. 06. 2019 18:32

#	Modifying user name:	WinNT
#	Modification time:	15. 06. 2019 18:32

#	Program:	/corina/corina34_cracker 3.40 0067  02.08.2006

@<TRIPOS>MOLECULE
ASD00170792
  60   64    0    0    0
SMALL
NO_CHARGES


@<TRIPOS>ATOM
   1 C1             0.0190     1.2792     0.0232 C.2     
   2 C2            -0.0298    -0.0580    -0.0156 C.2     
   3 S3            -1.6918    -0.6201    -0.0104 S.3     
   4 C4            -2.3106     0.9667     0.0446 C.2     
   5 C5            -1.2885     1.8903     0.0646 C.2     
   6 N6            -3.6519     1.2831     0.0711 N.pl3   
   7 C7            -1.5051     3.3369     0.1118 C.2     
   8 C8            -1.4829     4.0459     1.4091 C.ar    
   9 O9            -1.7037     3.9567    -0.9174 O.2     
  10 C10           -1.7922     5.4060     1.4699 C.ar    
  11 C11           -1.7703     6.0617     2.6828 C.ar    
  12 C12           -1.4417     5.3738     3.8393 C.ar    
  13 C13           -1.1334     4.0245     3.7852 C.ar    
  14 C14           -1.1580     3.3566     2.5790 C.ar    
  15 Cl15          -1.4156     6.2062     5.3624 Cl      
  16 C16            1.1549    -0.9406    -0.0572 C.ar    
  17 C17            1.3050     2.0649     0.0295 C.3     
  18 N18            1.7863     2.2274    -1.3489 N.3     
  19 C19            2.9015     3.1826    -1.4081 C.3     
  20 C20            3.4246     3.2634    -2.8442 C.3     
  21 N21            2.3334     3.6762    -3.7378 N.3     
  22 C22            1.2182     2.7210    -3.6785 C.3     
  23 C23            0.6951     2.6401    -2.2425 C.3     
  24 C24            2.7915     3.8308    -5.0497 C.ar    
  25 C25            1.2647    -2.0085     0.8351 C.ar    
  26 C26            2.3723    -2.8292     0.7915 C.ar    
  27 C27            3.3752    -2.5951    -0.1356 C.ar    
  28 C28            3.2715    -1.5365    -1.0238 C.ar    
  29 C29            2.1656    -0.7128    -0.9929 C.ar    
  30 C30            1.9121     4.2183    -6.0523 C.ar    
  31 C31            2.3669     4.3710    -7.3475 C.ar    
  32 C32            3.6986     4.1379    -7.6467 C.ar    
  33 C33            4.5772     3.7515    -6.6488 C.ar    
  34 C34            4.1279     3.6027    -5.3512 C.ar    
  35 F35            4.4584    -3.4016    -0.1734 F       
  36 F36            4.1412     4.2874    -8.9144 F       
  37 H37           -4.3173     0.5825    -0.0142 H       
  38 H38           -3.9305     2.2064     0.1752 H       
  39 H39           -2.0479     5.9436     0.5687 H       
  40 H40           -2.0094     7.1138     2.7310 H       
  41 H41           -0.8776     3.4935     4.6901 H       
  42 H42           -0.9175     2.3045     2.5380 H       
  43 H43            1.1293     3.0458     0.4710 H       
  44 H44            2.0537     1.5316     0.6153 H       
  45 H45            2.5549     4.1663    -1.0914 H       
  46 H46            3.7018     2.8486    -0.7478 H       
  47 H47            4.2329     3.9929    -2.8962 H       
  48 H48            3.7962     2.2859    -3.1514 H       
  49 H49            0.4179     3.0549    -4.3389 H       
  50 H50            1.5648     1.7372    -3.9953 H       
  51 H51           -0.1132     1.9107    -2.1905 H       
  52 H52            0.3235     3.6177    -1.9353 H       
  53 H53            0.4839    -2.1914     1.5585 H       
  54 H54            2.4582    -3.6557     1.4814 H       
  55 H55            4.0562    -1.3586    -1.7442 H       
  56 H56            2.0858     0.1119    -1.6855 H       
  57 H57            0.8732     4.3999    -5.8194 H       
  58 H58            1.6833     4.6720    -8.1275 H       
  59 H59            5.6154     3.5699    -6.8844 H       
  60 H60            4.8135     3.3013    -4.5731 H       
@<TRIPOS>BOND
   1    1    2 2
   2    1   17 1
   3    1    5 1
   4    2    3 1
   5    2   16 1
   6    3    4 1
   7    4    5 2
   8    4    6 1
   9    5    7 1
  10    6   37 1
  11    6   38 1
  12    7    8 1
  13    7    9 2
  14    8   10 ar
  15    8   14 ar
  16   10   11 ar
  17   10   39 1
  18   11   12 ar
  19   11   40 1
  20   12   13 ar
  21   12   15 1
  22   13   14 ar
  23   13   41 1
  24   14   42 1
  25   16   25 ar
  26   16   29 ar
  27   17   18 1
  28   17   43 1
  29   17   44 1
  30   18   19 1
  31   18   23 1
  32   19   20 1
  33   19   45 1
  34   19   46 1
  35   20   21 1
  36   20   47 1
  37   20   48 1
  38   21   22 1
  39   21   24 1
  40   22   23 1
  41   22   49 1
  42   22   50 1
  43   23   51 1
  44   23   52 1
  45   24   30 ar
  46   24   34 ar
  47   25   26 ar
  48   25   53 1
  49   26   27 ar
  50   26   54 1
  51   27   28 ar
  52   27   35 1
  53   28   29 ar
  54   28   55 1
  55   29   56 1
  56   30   31 ar
  57   30   57 1
  58   31   32 ar
  59   31   58 1
  60   32   33 ar
  61   32   36 1
  62   33   34 ar
  63   33   59 1
  64   34   60 1

#	End of record

