#	Name: ASD08178190
#	Creating user name:	WinNT
#	Creation time:	15. 06. 2019 21:18

#	Modifying user name:	WinNT
#	Modification time:	15. 06. 2019 21:18

#	Program:	/corina/corina34_cracker 3.40 0067  02.08.2006

@<TRIPOS>MOLECULE
ASD08178190
  83   87    0    0    0
SMALL
NO_CHARGES


@<TRIPOS>ATOM
   1 C1            -0.0191     1.5027     0.0207 C.ar    
   2 C2             0.0010    -0.0042     0.0166 C.3     
   3 C3            -0.8034    -0.5283     1.2078 C.3     
   4 C4            -0.7830    -2.0581     1.2036 C.3     
   5 C5            -1.5874    -2.5822     2.3949 C.3     
   6 C6            -1.5673    -4.0891     2.3907 C.2     
   7 N7            -0.6926    -4.8430     2.9773 N.2     
   8 N8            -0.8493    -6.0898     2.8558 N.2     
   9 C9            -1.8644    -6.5050     2.1598 C.2     
  10 S10           -2.7350    -5.1430     1.5925 S.3     
  11 N11           -2.1931    -7.8348     1.9197 N.am    
  12 C12           -1.4281    -8.8206     2.4289 C.2     
  13 C13           -1.7844   -10.2616     2.1687 C.3     
  14 O14           -0.4530    -8.5481     3.0966 O.2     
  15 C15           -1.6536   -10.5534     0.6960 C.ar    
  16 C16           -2.7627   -10.4746    -0.1251 C.ar    
  17 C17           -2.6435   -10.7417    -1.4764 C.ar    
  18 C18           -1.4153   -11.0880    -2.0068 C.ar    
  19 C19           -0.3046   -11.1670    -1.1853 C.ar    
  20 C20           -0.4234   -10.8941     0.1656 C.ar    
  21 C21            1.1728     2.2124     0.0064 C.ar    
  22 C22            1.1067     3.5974     0.0109 C.ar    
  23 C23           -0.1542     4.1903     0.0295 C.ar    
  24 N24           -1.2376     3.4283     0.0422 N.ar    
  25 N25           -1.1697     2.1466     0.0324 N.ar    
  26 N26           -0.2749     5.5795     0.0353 N.am    
  27 Cl27           1.2385   -11.6024    -1.8508 Cl      
  28 C28           -1.4926     6.1505    -0.0517 C.2     
  29 C29           -1.6342     7.6458     0.0713 C.3     
  30 O30           -2.4744     5.4610    -0.2290 O.2     
  31 C31           -3.0867     8.0253    -0.0606 C.ar    
  32 C32           -3.8892     8.0891     1.0632 C.ar    
  33 C33           -3.6151     8.3153    -1.3046 C.ar    
  34 C34           -4.9474     8.6634    -1.4256 C.ar    
  35 C35           -5.7514     8.7212    -0.3026 C.ar    
  36 C36           -5.2215     8.4372     0.9422 C.ar    
  37 O37           -0.8860   -11.1246     2.9147 O.3     
  38 C38           -1.3719   -12.3103     3.3143 C.2     
  39 C39           -0.4977   -13.2591     4.0932 C.3     
  40 O40           -2.5102   -12.6170     3.0496 O.2     
  41 C41           -1.2879   -14.5272     4.4223 C.3     
  42 N42           -0.4357   -15.4520     5.1815 N.3     
  43 C43           -1.2219   -16.5721     5.7189 C.3     
  44 C44           -0.2876   -17.5398     6.4500 C.3     
  45 O45            0.4169   -16.8324     7.4739 O.3     
  46 C46            1.1936   -15.7352     6.9857 C.3     
  47 C47            0.2743   -14.7492     6.2600 C.3     
  48 H48           -0.4409    -0.3709    -0.9099 H       
  49 H49            1.0307    -0.3540     0.0914 H       
  50 H50           -0.3615    -0.1615     2.1343 H       
  51 H51           -1.8331    -0.1785     1.1331 H       
  52 H52           -1.2249    -2.4249     0.2772 H       
  53 H53            0.2467    -2.4079     1.2784 H       
  54 H54           -1.1455    -2.2155     3.3213 H       
  55 H55           -2.6171    -2.2324     2.3201 H       
  56 H56           -2.9730    -8.0528     1.3857 H       
  57 H57           -2.8110   -10.4450     2.4857 H       
  58 H58           -3.7229   -10.2048     0.2891 H       
  59 H59           -3.5104   -10.6801    -2.1175 H       
  60 H60           -1.3224   -11.2973    -3.0623 H       
  61 H61            0.4431   -10.9556     0.8073 H       
  62 H62            2.1241     1.7012    -0.0074 H       
  63 H63            2.0044     4.1978     0.0007 H       
  64 H64            0.5176     6.1349     0.1018 H       
  65 H65           -1.2615     7.9672     1.0438 H       
  66 H66           -1.0588     8.1313    -0.7169 H       
  67 H67           -3.4753     7.8665     2.0356 H       
  68 H68           -2.9870     8.2701    -2.1820 H       
  69 H69           -5.3601     8.8906    -2.3974 H       
  70 H70           -6.7922     8.9936    -0.3970 H       
  71 H71           -5.8496     8.4823     1.8196 H       
  72 H72            0.3765   -13.5202     3.4969 H       
  73 H73           -0.1766   -12.7807     5.0185 H       
  74 H74           -2.1621   -14.2660     5.0186 H       
  75 H75           -1.6090   -15.0056     3.4970 H       
  76 H76           -1.9689   -16.1913     6.4153 H       
  77 H77           -1.7185   -17.0938     4.9008 H       
  78 H78           -0.8733   -18.3420     6.8989 H       
  79 H79            0.4259   -17.9615     5.7421 H       
  80 H80            1.6790   -15.2322     7.8220 H       
  81 H81            1.9502   -16.1045     6.2934 H       
  82 H82            0.8698   -13.9402     5.8369 H       
  83 H83           -0.4488   -14.3393     6.9651 H       
@<TRIPOS>BOND
   1    1    2 1
   2    1   21 ar
   3    1   25 ar
   4    2    3 1
   5    2   48 1
   6    2   49 1
   7    3    4 1
   8    3   50 1
   9    3   51 1
  10    4    5 1
  11    4   52 1
  12    4   53 1
  13    5    6 1
  14    5   54 1
  15    5   55 1
  16    6    7 2
  17    6   10 1
  18    7    8 1
  19    8    9 2
  20    9   10 1
  21    9   11 1
  22   11   12 am
  23   11   56 1
  24   12   13 1
  25   12   14 2
  26   13   15 1
  27   13   37 1
  28   13   57 1
  29   15   16 ar
  30   15   20 ar
  31   16   17 ar
  32   16   58 1
  33   17   18 ar
  34   17   59 1
  35   18   19 ar
  36   18   60 1
  37   19   20 ar
  38   19   27 1
  39   20   61 1
  40   21   22 ar
  41   21   62 1
  42   22   23 ar
  43   22   63 1
  44   23   24 ar
  45   23   26 1
  46   24   25 ar
  47   26   28 am
  48   26   64 1
  49   28   29 1
  50   28   30 2
  51   29   31 1
  52   29   65 1
  53   29   66 1
  54   31   32 ar
  55   31   33 ar
  56   32   36 ar
  57   32   67 1
  58   33   34 ar
  59   33   68 1
  60   34   35 ar
  61   34   69 1
  62   35   36 ar
  63   35   70 1
  64   36   71 1
  65   37   38 1
  66   38   39 1
  67   38   40 2
  68   39   41 1
  69   39   72 1
  70   39   73 1
  71   41   42 1
  72   41   74 1
  73   41   75 1
  74   42   43 1
  75   42   47 1
  76   43   44 1
  77   43   76 1
  78   43   77 1
  79   44   45 1
  80   44   78 1
  81   44   79 1
  82   45   46 1
  83   46   47 1
  84   46   80 1
  85   46   81 1
  86   47   82 1
  87   47   83 1

#	End of record

