#	Name: ASD03430702
#	Creating user name:	WinNT
#	Creation time:	15. 06. 2019 20:41

#	Modifying user name:	WinNT
#	Modification time:	15. 06. 2019 20:41

#	Program:	/corina/corina34_cracker 3.40 0067  02.08.2006

@<TRIPOS>MOLECULE
ASD03430702
  53   58    0    0    0
SMALL
NO_CHARGES


@<TRIPOS>ATOM
   1 C1            -0.0168     1.3862     0.0097 C.ar    
   2 C2             0.0021    -0.0041     0.0020 C.ar    
   3 C3             1.1997    -0.6855    -0.0146 C.ar    
   4 C4             2.4073     0.0061    -0.0160 C.ar    
   5 C5             2.3871     1.3967    -0.0137 C.ar    
   6 C6             1.1846     2.0851     0.0019 C.ar    
   7 O7             3.4681    -0.8513    -0.0047 O.3     
   8 C8             1.5445    -2.1503    -0.0447 C.3     
   9 C9             3.0301    -2.1554    -0.4312 C.3     
  10 C10            0.4215    -3.8633     1.0164 C.ar    
  11 C11            1.3078    -2.8206     1.2760 C.ar    
  12 C12            0.7100    -2.9129    -1.0332 C.2     
  13 N13            0.0924    -3.8908    -0.3409 N.am    
  14 O14            0.6105    -2.6917    -2.2216 O.2     
  15 C15            1.7707    -2.5965     2.5530 C.ar    
  16 C16            1.3587    -3.4115     3.5928 C.ar    
  17 C17            0.4808    -4.4508     3.3462 C.ar    
  18 C18            0.0125    -4.6785     2.0685 C.ar    
  19 C19           -0.8175    -4.8689    -0.9422 C.3     
  20 C20           -2.2482    -4.3282    -0.8993 C.3     
  21 C21           -3.2138    -5.3504    -1.5297 C.3     
  22 C22           -4.2243    -5.6647    -0.3999 C.3     
  23 C23           -4.0708    -4.4308     0.5256 C.3     
  24 O24           -2.6582    -4.1383     0.4653 O.3     
  25 N25           -1.2548     2.0420     0.0192 N.3     
  26 C26           -1.1412     3.4274     0.4905 C.3     
  27 C27           -0.0150     4.1179    -0.2897 C.3     
  28 O28            1.2108     3.4467     0.0172 O.3     
  29 C29           -2.2400     1.2951     0.8126 C.3     
  30 H30           -0.9278    -0.5534     0.0095 H       
  31 H31            3.3174     1.9452    -0.0239 H       
  32 H32            3.1493    -2.2705    -1.5086 H       
  33 H33            3.5667    -2.9383     0.1045 H       
  34 H34            2.4563    -1.7841     2.7435 H       
  35 H35            1.7224    -3.2364     4.5945 H       
  36 H36            0.1603    -5.0875     4.1575 H       
  37 H37           -0.6732    -5.4922     1.8837 H       
  38 H38           -0.5272    -5.0468    -1.9776 H       
  39 H39           -0.7657    -5.8041    -0.3846 H       
  40 H40           -2.3035    -3.3835    -1.4402 H       
  41 H41           -3.7246    -4.9137    -2.3879 H       
  42 H42           -2.6765    -6.2524    -1.8228 H       
  43 H43           -5.2387    -5.7322    -0.7930 H       
  44 H44           -3.9498    -6.5803     0.1239 H       
  45 H45           -4.6531    -3.5914     0.1458 H       
  46 H46           -4.3688    -4.6762     1.5449 H       
  47 H47           -2.0812     3.9512     0.3171 H       
  48 H48           -0.9064     3.4338     1.5549 H       
  49 H49           -0.2130     4.0512    -1.3595 H       
  50 H50            0.0524     5.1641     0.0087 H       
  51 H51           -1.8853     1.2031     1.8392 H       
  52 H52           -3.1918     1.8262     0.8033 H       
  53 H53           -2.3739     0.3019     0.3841 H       
@<TRIPOS>BOND
   1    1    2 ar
   2    1    6 ar
   3    1   25 1
   4    2    3 ar
   5    2   30 1
   6    3    4 ar
   7    3    8 1
   8    4    5 ar
   9    4    7 1
  10    5    6 ar
  11    5   31 1
  12    6   28 1
  13    7    9 1
  14    8    9 1
  15    8   11 1
  16    8   12 1
  17    9   32 1
  18    9   33 1
  19   10   11 ar
  20   10   13 1
  21   10   18 ar
  22   11   15 ar
  23   12   13 am
  24   12   14 2
  25   13   19 1
  26   15   16 ar
  27   15   34 1
  28   16   17 ar
  29   16   35 1
  30   17   18 ar
  31   17   36 1
  32   18   37 1
  33   19   20 1
  34   19   38 1
  35   19   39 1
  36   20   21 1
  37   20   24 1
  38   20   40 1
  39   21   22 1
  40   21   41 1
  41   21   42 1
  42   22   23 1
  43   22   43 1
  44   22   44 1
  45   23   24 1
  46   23   45 1
  47   23   46 1
  48   25   26 1
  49   25   29 1
  50   26   27 1
  51   26   47 1
  52   26   48 1
  53   27   28 1
  54   27   49 1
  55   27   50 1
  56   29   51 1
  57   29   52 1
  58   29   53 1

#	End of record

