#	Name: ASD03430475
#	Creating user name:	WinNT
#	Creation time:	15. 06. 2019 20:41

#	Modifying user name:	WinNT
#	Modification time:	15. 06. 2019 20:41

#	Program:	/corina/corina34_cracker 3.40 0067  02.08.2006

@<TRIPOS>MOLECULE
ASD03430475
  52   56    0    0    0
SMALL
NO_CHARGES


@<TRIPOS>ATOM
   1 N1            -0.0161     1.3395     0.0094 N.am    
   2 C2             0.0021    -0.0041     0.0020 C.2     
   3 C3             1.4548    -0.4298    -0.0141 C.3     
   4 C4             2.2197     0.8737    -0.0144 C.ar    
   5 C5             3.5641     1.1705    -0.0263 C.ar    
   6 C6             3.9795     2.4906    -0.0239 C.ar    
   7 C7             3.0415     3.5068    -0.0095 C.ar    
   8 C8             1.6940     3.2122     0.0024 C.ar    
   9 C9             1.2680     1.8853     0.0001 C.ar    
  10 O10           -0.9637    -0.7377     0.0076 O.2     
  11 C11           -1.2434     2.1395     0.0197 C.3     
  12 O12           -1.9334     1.1726     2.1336 O.3     
  13 C13           -1.6633     2.4106     1.4658 C.3     
  14 C14           -2.9622     3.2448     1.4863 C.3     
  15 C15           -3.7433     2.6094     2.6687 C.3     
  16 C16           -3.3087     1.1273     2.5456 C.3     
  17 O17            1.7154    -0.8423     4.8289 O.3     
  18 C18            1.7199    -1.7182     5.9609 C.3     
  19 C19            2.9062    -2.6792     5.8085 C.3     
  20 N20            2.6954    -3.4959     4.6076 N.3     
  21 C21            2.3849    -2.7169     3.4884 C.ar    
  22 C22            1.9024    -1.4189     3.6086 C.ar    
  23 C23            2.5676    -3.2672     2.2242 C.ar    
  24 C24            2.2674    -2.5276     1.0921 C.ar    
  25 C25            1.7830    -1.2343     1.2172 C.ar    
  26 C26            1.6017    -0.6834     2.4716 C.ar    
  27 C27            3.8573    -4.3555     4.3449 C.3     
  28 O28            2.4486    -3.0693    -0.1418 O.3     
  29 H29            1.6751    -1.0021    -0.9153 H       
  30 H30            4.2935     0.3741    -0.0372 H       
  31 H31            5.0333     2.7266    -0.0329 H       
  32 H32            3.3659     4.5370    -0.0072 H       
  33 H33            0.9677     4.0114     0.0136 H       
  34 H34           -1.0644     3.0860    -0.4902 H       
  35 H35           -2.0364     1.5949    -0.4929 H       
  36 H36           -0.8710     2.9472     1.9877 H       
  37 H37           -2.7459     4.2947     1.6839 H       
  38 H38           -3.5118     3.1300     0.5520 H       
  39 H39           -3.4270     3.0337     3.6216 H       
  40 H40           -4.8193     2.7160     2.5312 H       
  41 H41           -3.9120     0.6172     1.7946 H       
  42 H42           -3.3987     0.6253     3.5090 H       
  43 H43            1.8312    -1.1372     6.8764 H       
  44 H44            0.7887    -2.2839     5.9932 H       
  45 H45            3.8288    -2.1082     5.7054 H       
  46 H46            2.9685    -3.3253     6.6842 H       
  47 H47            2.9448    -4.2743     2.1249 H       
  48 H48            1.2241     0.3239     2.5670 H       
  49 H49            4.0608    -4.9694     5.2223 H       
  50 H50            3.6468    -5.0000     3.4914 H       
  51 H51            4.7263    -3.7350     4.1261 H       
  52 H52            1.6746    -3.5378    -0.4833 H       
@<TRIPOS>BOND
   1    1    2 am
   2    1    9 1
   3    1   11 1
   4    2    3 1
   5    2   10 2
   6    3    4 1
   7    3   25 1
   8    3   29 1
   9    4    5 ar
  10    4    9 ar
  11    5    6 ar
  12    5   30 1
  13    6    7 ar
  14    6   31 1
  15    7    8 ar
  16    7   32 1
  17    8    9 ar
  18    8   33 1
  19   11   13 1
  20   11   34 1
  21   11   35 1
  22   12   13 1
  23   12   16 1
  24   13   14 1
  25   13   36 1
  26   14   15 1
  27   14   37 1
  28   14   38 1
  29   15   16 1
  30   15   39 1
  31   15   40 1
  32   16   41 1
  33   16   42 1
  34   17   18 1
  35   17   22 1
  36   18   19 1
  37   18   43 1
  38   18   44 1
  39   19   20 1
  40   19   45 1
  41   19   46 1
  42   20   21 1
  43   20   27 1
  44   21   22 ar
  45   21   23 ar
  46   22   26 ar
  47   23   24 ar
  48   23   47 1
  49   24   25 ar
  50   24   28 1
  51   25   26 ar
  52   26   48 1
  53   27   49 1
  54   27   50 1
  55   27   51 1
  56   28   52 1

#	End of record

