#	Name: ASD03540234
#	Creating user name:	WinNT
#	Creation time:	15. 06. 2019 20:42

#	Modifying user name:	WinNT
#	Modification time:	15. 06. 2019 20:42

#	Program:	/corina/corina34_cracker 3.40 0067  02.08.2006

@<TRIPOS>MOLECULE
ASD03540234
  50   53    0    0    0
SMALL
NO_CHARGES


@<TRIPOS>ATOM
   1 C1             0.2344     1.3031    -0.1446 C.2     
   2 N2             0.3003    -0.0359    -0.1515 N.am    
   3 C3             1.5016    -0.6982     0.0266 C.2     
   4 C4             2.6612     0.0446     0.2163 C.2     
   5 C5             2.5359     1.5197     0.2165 C.2     
   6 N6             1.3215     2.0707     0.0342 N.am    
   7 C7             3.7972    -0.7497     0.3826 C.2     
   8 C8             3.5604    -2.0721     0.3288 C.2     
   9 S9             1.8523    -2.3698     0.0597 S.3     
  10 C10            4.5792    -3.1118     0.4730 C.2     
  11 O11            5.7414    -2.8033     0.6569 O.2     
  12 O12            4.2298    -4.4131     0.4022 O.3     
  13 C13            1.1836     3.5292     0.0315 C.3     
  14 C14            0.9607     4.0153     1.4404 C.ar    
  15 C15            0.8828     5.3711     1.6997 C.ar    
  16 C16            0.6785     5.8169     2.9919 C.ar    
  17 C17            0.5515     4.9070     4.0251 C.ar    
  18 C18            0.6285     3.5517     3.7658 C.ar    
  19 C19            0.8286     3.1056     2.4725 C.ar    
  20 C20            1.0212     6.3628     0.5735 C.3     
  21 F21            0.8782     7.6610     1.0751 F       
  22 F22            2.2830     6.2267    -0.0153 F       
  23 F23            0.0309     6.1214    -0.3848 F       
  24 O24            3.5156     2.2230     0.3779 O.2     
  25 O25           -0.8438     1.8398    -0.3105 O.2     
  26 C26           -0.9251    -0.8136    -0.3513 C.3     
  27 C27            5.2761    -5.3748     0.5516 C.3     
  28 C28            4.7009    -6.7636     0.4447 C.ar    
  29 C29            4.6201    -7.3853    -0.7873 C.ar    
  30 C30            4.0925    -8.6592    -0.8854 C.ar    
  31 C31            3.6460    -9.3116     0.2485 C.ar    
  32 C32            3.7276    -8.6903     1.4807 C.ar    
  33 C33            4.2593    -7.4181     1.5794 C.ar    
  34 H34            4.7826    -0.3369     0.5409 H       
  35 H35            2.0921     3.9793    -0.3687 H       
  36 H36            0.3338     3.8127    -0.5894 H       
  37 H37            0.6183     6.8760     3.1946 H       
  38 H38            0.3925     5.2554     5.0350 H       
  39 H39            0.5296     2.8409     4.5729 H       
  40 H40            0.8850     2.0464     2.2693 H       
  41 H41           -1.7698    -0.1356    -0.4735 H       
  42 H42           -0.8223    -1.4306    -1.2440 H       
  43 H43           -1.0949    -1.4531     0.5149 H       
  44 H44            6.0193    -5.2280    -0.2321 H       
  45 H45            5.7471    -5.2507     1.5267 H       
  46 H46            4.9690    -6.8756    -1.6733 H       
  47 H47            4.0287    -9.1446    -1.8481 H       
  48 H48            3.2331   -10.3066     0.1718 H       
  49 H49            3.3785    -9.1999     2.3666 H       
  50 H50            4.3265    -6.9341     2.5425 H       
@<TRIPOS>BOND
   1    1    2 am
   2    1    6 am
   3    1   25 2
   4    2    3 1
   5    2   26 1
   6    3    4 2
   7    3    9 1
   8    4    5 1
   9    4    7 1
  10    5    6 am
  11    5   24 2
  12    6   13 1
  13    7    8 2
  14    7   34 1
  15    8    9 1
  16    8   10 1
  17   10   11 2
  18   10   12 1
  19   12   27 1
  20   13   14 1
  21   13   35 1
  22   13   36 1
  23   14   15 ar
  24   14   19 ar
  25   15   16 ar
  26   15   20 1
  27   16   17 ar
  28   16   37 1
  29   17   18 ar
  30   17   38 1
  31   18   19 ar
  32   18   39 1
  33   19   40 1
  34   20   21 1
  35   20   22 1
  36   20   23 1
  37   26   41 1
  38   26   42 1
  39   26   43 1
  40   27   28 1
  41   27   44 1
  42   27   45 1
  43   28   29 ar
  44   28   33 ar
  45   29   30 ar
  46   29   46 1
  47   30   31 ar
  48   30   47 1
  49   31   32 ar
  50   31   48 1
  51   32   33 ar
  52   32   49 1
  53   33   50 1

#	End of record

