#	Name: ASD00110008
#	Creating user name:	WinNT
#	Creation time:	15. 06. 2019 18:30

#	Modifying user name:	WinNT
#	Modification time:	15. 06. 2019 18:30

#	Program:	/corina/corina34_cracker 3.40 0067  02.08.2006

@<TRIPOS>MOLECULE
ASD00110008
  85   86    0    0    0
SMALL
NO_CHARGES


@<TRIPOS>ATOM
   1 N1            -0.0371     1.0541     0.0181 N.3     
   2 C2             0.2355    -0.3876     0.0789 C.3     
   3 C3             1.0398    -0.7032     1.3420 C.3     
   4 C4             2.3536     0.0829     1.3143 C.3     
   5 C5             2.0424     1.5779     1.2020 C.3     
   6 C6             1.2090     1.8274    -0.0570 C.3     
   7 C7             1.9929     1.3997    -1.2710 C.2     
   8 N8             3.2142     1.9207    -1.5024 N.am    
   9 O9             1.5248     0.5868    -2.0397 O.2     
  10 C10            4.0208     1.4276    -2.6215 C.3     
  11 C11            4.9281     2.5499    -3.1297 C.3     
  12 C12            4.8790     0.2511    -2.1523 C.3     
  13 C13            5.7081     0.6766    -0.9389 C.3     
  14 O14            5.6396     2.1013    -4.2849 O.3     
  15 C15            4.0765     3.7677    -3.4977 C.3     
  16 C16            3.1232     3.3895    -4.6355 C.3     
  17 C17            3.9421     2.8727    -5.8224 C.3     
  18 C18            4.7989     1.6894    -5.3646 C.3     
  19 S19            5.8254     1.1157    -6.7458 S.3     
  20 O20            4.7892     3.9159    -6.3084 O.3     
  21 O21            2.2293     2.3673    -4.1903 O.3     
  22 O22            3.3197     4.1830    -2.3588 O.3     
  23 O23            4.0322    -0.8419    -1.7910 O.3     
  24 C24            6.5202    -0.4386    -6.1197 C.3     
  25 C25            3.1348    -0.1813     2.6030 C.3     
  26 C26            3.5461    -1.6540     2.6572 C.3     
  27 C27            4.3273    -1.9183     3.9459 C.3     
  28 C28            4.7386    -3.3910     4.0001 C.3     
  29 C29            5.5198    -3.6552     5.2888 C.3     
  30 C30            5.9311    -5.1279     5.3430 C.3     
  31 C31            6.7123    -5.3922     6.6317 C.3     
  32 C32            7.1236    -6.8648     6.6859 C.3     
  33 C33            7.9048    -7.1291     7.9746 C.3     
  34 C34            8.3161    -8.6018     8.0288 C.3     
  35 C35            9.0973    -8.8660     9.3175 C.3     
  36 H36           -0.6467     1.2745    -0.7552 H       
  37 H37           -0.7070    -0.9347     0.1023 H       
  38 H38            0.8070    -0.6865    -0.7998 H       
  39 H39            0.4631    -0.4172     2.2216 H       
  40 H40            1.2554    -1.7710     1.3789 H       
  41 H41            2.9478    -0.2309     0.4562 H       
  42 H42            1.4814     1.8998     2.0794 H       
  43 H43            2.9742     2.1399     1.1388 H       
  44 H44            0.9736     2.8890    -0.1324 H       
  45 H45            3.5591     2.6221    -0.9280 H       
  46 H46            3.3632     1.0994    -3.4265 H       
  47 H47            5.6378     2.8250    -2.3495 H       
  48 H48            5.5455    -0.0566    -2.9580 H       
  49 H49            5.0472     1.0737    -0.1684 H       
  50 H50            6.2468    -0.1859    -0.5463 H       
  51 H51            6.4210     1.4452    -1.2374 H       
  52 H52            4.7253     4.5815    -3.8215 H       
  53 H53            2.5530     4.2669    -4.9404 H       
  54 H54            3.2688     2.5493    -6.6162 H       
  55 H55            4.1508     0.8786    -5.0318 H       
  56 H56            5.3377     3.6581    -7.0619 H       
  57 H57            1.5960     2.0788    -4.8617 H       
  58 H58            2.7559     4.9518    -2.5203 H       
  59 H59            3.5366    -1.2170    -2.5318 H       
  60 H60            7.1653    -0.8802    -6.8793 H       
  61 H61            7.1020    -0.2400    -5.2196 H       
  62 H62            5.7108    -1.1295    -5.8841 H       
  63 H63            4.0261     0.4458     2.6227 H       
  64 H64            2.5070     0.0525     3.4629 H       
  65 H65            2.6547    -2.2811     2.6376 H       
  66 H66            4.1738    -1.8878     1.7974 H       
  67 H67            5.2186    -1.2912     3.9656 H       
  68 H68            3.6995    -1.6845     4.8058 H       
  69 H69            3.8472    -4.0181     3.9805 H       
  70 H70            5.3663    -3.6248     3.1403 H       
  71 H71            6.4111    -3.0281     5.3085 H       
  72 H72            4.8920    -3.4214     6.1487 H       
  73 H73            5.0398    -5.7550     5.3234 H       
  74 H74            6.5588    -5.3617     4.4832 H       
  75 H75            7.6036    -4.7650     6.6514 H       
  76 H76            6.0845    -5.1584     7.4916 H       
  77 H77            6.2323    -7.4920     6.6663 H       
  78 H78            7.7513    -7.0986     5.8261 H       
  79 H79            8.7961    -6.5020     7.9943 H       
  80 H80            7.2770    -6.8953     8.8345 H       
  81 H81            7.4248    -9.2289     8.0092 H       
  82 H82            8.9438    -8.8356     7.1690 H       
  83 H83            9.9886    -8.2389     9.3371 H       
  84 H84            8.4695    -8.6322    10.1774 H       
  85 H85            9.3903    -9.9152     9.3561 H       
@<TRIPOS>BOND
   1    1    2 1
   2    1    6 1
   3    1   36 1
   4    2    3 1
   5    2   37 1
   6    2   38 1
   7    3    4 1
   8    3   39 1
   9    3   40 1
  10    4    5 1
  11    4   25 1
  12    4   41 1
  13    5    6 1
  14    5   42 1
  15    5   43 1
  16    6    7 1
  17    6   44 1
  18    7    8 am
  19    7    9 2
  20    8   10 1
  21    8   45 1
  22   10   12 1
  23   10   11 1
  24   10   46 1
  25   11   15 1
  26   11   14 1
  27   11   47 1
  28   12   13 1
  29   12   23 1
  30   12   48 1
  31   13   49 1
  32   13   50 1
  33   13   51 1
  34   14   18 1
  35   15   16 1
  36   15   22 1
  37   15   52 1
  38   16   17 1
  39   16   21 1
  40   16   53 1
  41   17   18 1
  42   17   20 1
  43   17   54 1
  44   18   19 1
  45   18   55 1
  46   19   24 1
  47   20   56 1
  48   21   57 1
  49   22   58 1
  50   23   59 1
  51   24   60 1
  52   24   61 1
  53   24   62 1
  54   25   26 1
  55   25   63 1
  56   25   64 1
  57   26   27 1
  58   26   65 1
  59   26   66 1
  60   27   28 1
  61   27   67 1
  62   27   68 1
  63   28   29 1
  64   28   69 1
  65   28   70 1
  66   29   30 1
  67   29   71 1
  68   29   72 1
  69   30   31 1
  70   30   73 1
  71   30   74 1
  72   31   32 1
  73   31   75 1
  74   31   76 1
  75   32   33 1
  76   32   77 1
  77   32   78 1
  78   33   34 1
  79   33   79 1
  80   33   80 1
  81   34   35 1
  82   34   81 1
  83   34   82 1
  84   35   83 1
  85   35   84 1
  86   35   85 1

#	End of record

