#	Name: ASD01840259
#	Creating user name:	WinNT
#	Creation time:	15. 06. 2019 19:37

#	Modifying user name:	WinNT
#	Modification time:	15. 06. 2019 19:37

#	Program:	/corina/corina34_cracker 3.40 0067  02.08.2006

@<TRIPOS>MOLECULE
ASD01840259
  44   47    0    0    0
SMALL
NO_CHARGES


@<TRIPOS>ATOM
   1 C1            -2.2486    -5.8998     1.3538 C.3     
   2 O2            -1.4350    -7.0540     1.5728 O.3     
   3 C3            -0.4742    -6.9591     2.5292 C.ar    
   4 C4            -0.3215    -5.7813     3.2463 C.ar    
   5 C5             0.6556    -5.6876     4.2183 C.ar    
   6 C6             1.4813    -6.7661     4.4765 C.ar    
   7 C7             1.3315    -7.9409     3.7629 C.ar    
   8 C8             0.3518    -8.0418     2.7941 C.ar    
   9 C9             2.5467    -6.6609     5.5371 C.3     
  10 H10            2.3536    -5.9352     6.3271 H       
  11 C11            3.2905    -7.9417     5.9208 C.3     
  12 C12            3.9997    -6.8608     5.1012 C.3     
  13 H13            4.1849    -7.0684     4.0473 H       
  14 N14            5.0248    -6.0625     5.7780 N.am    
  15 C15            6.1908    -5.7963     5.1565 C.2     
  16 O16            6.3921    -6.2193     4.0328 O.2     
  17 C17            7.2142    -4.9994     5.8321 C.2     
  18 S18            7.0518    -4.3399     7.4482 S.3     
  19 C19            8.6468    -3.6054     7.3912 C.ar    
  20 C20            9.3403    -2.8434     8.3374 C.ar    
  21 N21           10.5441    -2.3871     8.0780 N.ar    
  22 C22           11.1518    -2.6220     6.9272 C.ar    
  23 C23           10.5556    -3.3543     5.9457 C.ar    
  24 C24           11.2710    -3.6074     4.6437 C.3     
  25 C25            9.2586    -3.8747     6.1608 C.ar    
  26 C26            8.4167    -4.6778     5.2932 C.2     
  27 N27            8.8064    -5.0785     4.0220 N.pl3   
  28 H28           -1.6184    -5.0626     1.0538 H       
  29 H29           -2.9728    -6.1098     0.5667 H       
  30 H30           -2.7753    -5.6467     2.2739 H       
  31 H31           -0.9657    -4.9383     3.0445 H       
  32 H32            0.7749    -4.7709     4.7768 H       
  33 H33            1.9779    -8.7819     3.9662 H       
  34 H34            0.2323    -8.9611     2.2401 H       
  35 H35            3.5870    -8.0585     6.9632 H       
  36 H36            3.0092    -8.8605     5.4062 H       
  37 H37            4.8645    -5.7255     6.6733 H       
  38 H38            8.8809    -2.6278     9.2907 H       
  39 H39           12.1422    -2.2243     6.7619 H       
  40 H40           11.7608    -4.5804     4.6814 H       
  41 H41           10.5513    -3.5943     3.8252 H       
  42 H42           12.0184    -2.8304     4.4828 H       
  43 H43            8.1377    -5.3369     3.3686 H       
  44 H44            9.7474    -5.1000     3.7874 H       
@<TRIPOS>BOND
   1    1    2 1
   2    1   28 1
   3    1   29 1
   4    1   30 1
   5    2    3 1
   6    3    8 ar
   7    3    4 ar
   8    4    5 ar
   9    4   31 1
  10    5    6 ar
  11    5   32 1
  12    6    7 ar
  13    6    9 1
  14    7    8 ar
  15    7   33 1
  16    8   34 1
  17    9   10 1
  18    9   12 1
  19    9   11 1
  20   11   12 1
  21   11   35 1
  22   11   36 1
  23   12   13 1
  24   12   14 1
  25   14   15 am
  26   14   37 1
  27   15   16 2
  28   15   17 1
  29   17   26 2
  30   17   18 1
  31   18   19 1
  32   19   25 ar
  33   19   20 ar
  34   20   21 ar
  35   20   38 1
  36   21   22 ar
  37   22   23 ar
  38   22   39 1
  39   23   24 1
  40   23   25 ar
  41   24   40 1
  42   24   41 1
  43   24   42 1
  44   25   26 1
  45   26   27 1
  46   27   43 1
  47   27   44 1

#	End of record

