#	Name: ASD02038766
#	Creating user name:	WinNT
#	Creation time:	15. 06. 2019 20:17

#	Modifying user name:	WinNT
#	Modification time:	15. 06. 2019 20:17

#	Program:	/corina/corina34_cracker 3.40 0067  02.08.2006

@<TRIPOS>MOLECULE
ASD02038766
  40   42    0    0    0
SMALL
NO_CHARGES


@<TRIPOS>ATOM
   1 C1            -1.2778    -0.8481     0.4642 C.2     
   2 C2            -0.0606    -0.0343     0.3011 C.2     
   3 N3             1.1369    -0.6350     0.1537 N.am    
   4 C4             1.2420    -2.0929     0.2511 C.3     
   5 C5             1.2145    -2.6921    -1.1314 C.ar    
   6 C6             2.3334     0.1701    -0.1040 C.3     
   7 O7            -0.1363     1.1796     0.2994 O.2     
   8 N8            -1.3384    -2.2039     0.4952 N.2     
   9 C9            -2.5786    -2.5663     0.6533 C.2     
  10 N10           -3.3577    -1.4560     0.7293 N.pl3   
  11 C11           -2.5486    -0.3763     0.6175 C.2     
  12 C12            2.3981    -3.0142    -1.7686 C.ar    
  13 C13            0.0055    -2.9246    -1.7597 C.ar    
  14 C14           -0.0206    -3.4751    -3.0278 C.ar    
  15 C15            1.1622    -3.7932    -3.6677 C.ar    
  16 C16            2.3727    -3.5646    -3.0375 C.ar    
  17 C17            2.1214     1.0143    -1.3645 C.3     
  18 C18            3.3442     1.9095    -1.5813 C.3     
  19 O19            3.5442     2.7282    -0.4273 O.3     
  20 C20            3.7944     1.9940     0.7728 C.3     
  21 C21            2.5896     1.1021     1.0843 C.3     
  22 Cl22           3.8590    -3.9633    -3.8410 Cl      
  23 H23            2.1778    -2.3577     0.7433 H       
  24 H24            0.4042    -2.4796     0.8314 H       
  25 H25            3.1915    -0.4870    -0.2453 H       
  26 H26           -2.9314    -3.5853     0.7138 H       
  27 H27           -4.3204    -1.4397     0.8468 H       
  28 H28           -2.8521     0.6599     0.6382 H       
  29 H29            3.3426    -2.8360    -1.2760 H       
  30 H30           -0.9192    -2.6766    -1.2598 H       
  31 H31           -0.9656    -3.6569    -3.5181 H       
  32 H32            1.1417    -4.2239    -4.6579 H       
  33 H33            1.9933     0.3579    -2.2252 H       
  34 H34            1.2332     1.6342    -1.2426 H       
  35 H35            4.2252     1.2884    -1.7435 H       
  36 H36            3.1807     2.5433    -2.4529 H       
  37 H37            4.6812     1.3740     0.6415 H       
  38 H38            3.9551     2.6887     1.5972 H       
  39 H39            1.7109     1.7238     1.2557 H       
  40 H40            2.7964     0.5086     1.9748 H       
@<TRIPOS>BOND
   1    1    2 1
   2    1    8 1
   3    1   11 2
   4    2    3 am
   5    2    7 2
   6    3    4 1
   7    3    6 1
   8    4    5 1
   9    4   23 1
  10    4   24 1
  11    5   12 ar
  12    5   13 ar
  13    6   17 1
  14    6   21 1
  15    6   25 1
  16    8    9 2
  17    9   10 1
  18    9   26 1
  19   10   11 1
  20   10   27 1
  21   11   28 1
  22   12   16 ar
  23   12   29 1
  24   13   14 ar
  25   13   30 1
  26   14   15 ar
  27   14   31 1
  28   15   16 ar
  29   15   32 1
  30   16   22 1
  31   17   18 1
  32   17   33 1
  33   17   34 1
  34   18   19 1
  35   18   35 1
  36   18   36 1
  37   19   20 1
  38   20   21 1
  39   20   37 1
  40   20   38 1
  41   21   39 1
  42   21   40 1

#	End of record

