#	Name: ASD03540384
#	Creating user name:	WinNT
#	Creation time:	15. 06. 2019 20:43

#	Modifying user name:	WinNT
#	Modification time:	15. 06. 2019 20:43

#	Program:	/corina/corina34_cracker 3.40 0067  02.08.2006

@<TRIPOS>MOLECULE
ASD03540384
  57   62    0    0    0
SMALL
NO_CHARGES


@<TRIPOS>ATOM
   1 N1            -0.0161     1.3396     0.0094 N.am    
   2 C2             0.0021    -0.0041     0.0020 C.2     
   3 N3             1.1390    -0.7172    -0.0122 N.am    
   4 C4             2.3459    -0.1106    -0.0200 C.2     
   5 C5             2.3857     1.3633    -0.0129 C.ar    
   6 C6             3.5871     2.0607    -0.0197 C.ar    
   7 C7             3.5659     3.4548    -0.0121 C.ar    
   8 C8             2.3437     4.1382     0.0023 C.ar    
   9 C9             1.1622     3.4519     0.0094 C.ar    
  10 C10            1.1637     2.0628     0.0020 C.ar    
  11 C11            4.8337     4.2115    -0.0186 C.2     
  12 O12            5.8952     3.6190    -0.0307 O.2     
  13 N13            4.8141     5.5591    -0.0113 N.am    
  14 C14            6.0721     6.3100    -0.0178 C.3     
  15 O15            4.9688    11.8141     0.2817 O.3     
  16 C16            5.3613    12.0032     1.6541 C.3     
  17 O17            5.2078    10.6956     2.2371 O.3     
  18 C18            5.3772     9.8154     1.2077 C.ar    
  19 C19            5.2302    10.5032     0.0052 C.ar    
  20 C20            5.6494     8.4574     1.1957 C.ar    
  21 C21            5.7753     7.7874    -0.0074 C.ar    
  22 C22            5.6299     8.4699    -1.2004 C.ar    
  23 C23            5.3575     9.8257    -1.1961 C.ar    
  24 O24            3.3721    -0.7626    -0.0320 O.2     
  25 O25           -1.0576    -0.5997     0.0089 O.2     
  26 C26           -1.2992     2.0466     0.0193 C.3     
  27 C27            1.0697    -2.1806    -0.0189 C.3     
  28 O28            1.1924    -4.0363    -5.3240 O.3     
  29 C29            2.5454    -4.5288    -5.3124 C.3     
  30 O30            3.1811    -3.7582    -4.2755 O.3     
  31 C31            2.1812    -3.4133    -3.4127 C.ar    
  32 C32            0.9582    -3.5844    -4.0574 C.ar    
  33 C33            2.2128    -2.9582    -2.1049 C.ar    
  34 C34            1.0327    -2.6752    -1.4420 C.ar    
  35 C35           -0.1807    -2.8453    -2.0815 C.ar    
  36 C36           -0.2198    -3.2989    -3.3872 C.ar    
  37 H37            4.5271     1.5290    -0.0304 H       
  38 H38            2.3349     5.2181     0.0081 H       
  39 H39            0.2260     3.9901     0.0212 H       
  40 H40            3.9672     6.0319    -0.0017 H       
  41 H41            6.6548     6.0502     0.8660 H       
  42 H42            6.6399     6.0598    -0.9139 H       
  43 H43            6.3996    12.3297     1.7139 H       
  44 H44            4.7042    12.7209     2.1450 H       
  45 H45            5.7642     7.9217     2.1264 H       
  46 H46            5.7289     7.9432    -2.1381 H       
  47 H47            5.2437    10.3563    -2.1298 H       
  48 H48           -2.1134     1.3219     0.0192 H       
  49 H49           -1.3652     2.6671     0.9130 H       
  50 H50           -1.3736     2.6768    -0.8669 H       
  51 H51            1.9463    -2.5881     0.4847 H       
  52 H52            0.1684    -2.5041     0.5017 H       
  53 H53            2.5644    -5.5906    -5.0668 H       
  54 H54            3.0268    -4.3483    -6.2736 H       
  55 H55            3.1595    -2.8250    -1.6025 H       
  56 H56           -1.1002    -2.6232    -1.5605 H       
  57 H57           -1.1693    -3.4303    -3.8848 H       
@<TRIPOS>BOND
   1    1    2 am
   2    1   10 1
   3    1   26 1
   4    2    3 am
   5    2   25 2
   6    3    4 am
   7    3   27 1
   8    4    5 1
   9    4   24 2
  10    5    6 ar
  11    5   10 ar
  12    6    7 ar
  13    6   37 1
  14    7    8 ar
  15    7   11 1
  16    8    9 ar
  17    8   38 1
  18    9   10 ar
  19    9   39 1
  20   11   12 2
  21   11   13 am
  22   13   14 1
  23   13   40 1
  24   14   21 1
  25   14   41 1
  26   14   42 1
  27   15   16 1
  28   15   19 1
  29   16   17 1
  30   16   43 1
  31   16   44 1
  32   17   18 1
  33   18   19 ar
  34   18   20 ar
  35   19   23 ar
  36   20   21 ar
  37   20   45 1
  38   21   22 ar
  39   22   23 ar
  40   22   46 1
  41   23   47 1
  42   26   48 1
  43   26   49 1
  44   26   50 1
  45   27   34 1
  46   27   51 1
  47   27   52 1
  48   28   29 1
  49   28   32 1
  50   29   30 1
  51   29   53 1
  52   29   54 1
  53   30   31 1
  54   31   32 ar
  55   31   33 ar
  56   32   36 ar
  57   33   34 ar
  58   33   55 1
  59   34   35 ar
  60   35   36 ar
  61   35   56 1
  62   36   57 1

#	End of record

