#	Name: ASD01940608
#	Creating user name:	WinNT
#	Creation time:	15. 06. 2019 20:12

#	Modifying user name:	WinNT
#	Modification time:	15. 06. 2019 20:12

#	Program:	/corina/corina34_cracker 3.40 0067  02.08.2006

@<TRIPOS>MOLECULE
ASD01940608
  38   40    0    0    0
SMALL
NO_CHARGES


@<TRIPOS>ATOM
   1 C1             0.3576     0.9681     1.2054 C.ar    
   2 C2            -0.1457     0.2353     0.1463 C.ar    
   3 C3             0.6221     0.0336    -0.9879 C.ar    
   4 C4             1.8992     0.5656    -1.0669 C.ar    
   5 C5             2.4098     1.3028    -0.0066 C.ar    
   6 C6             1.6346     1.5044     1.1343 C.ar    
   7 N7             2.1445     2.2478     2.2070 N.am    
   8 S8             1.7634     1.8257     3.7623 S.o2    
   9 C9             2.3902     0.1325     3.9382 C.3     
  10 O10            2.5191     2.7230     4.5641 O.2     
  11 O11            0.3427     1.8369     3.7903 O.2     
  12 F12            0.1255    -0.6835    -2.0195 F       
  13 F13            2.6471     0.3669    -2.1743 F       
  14 N14            3.7011     1.8423    -0.0832 N.pl3   
  15 C15            4.8074     1.0516     0.2309 C.ar    
  16 C16            6.0770     1.6207     0.2785 C.ar    
  17 C17            4.6389    -0.3015     0.5014 C.ar    
  18 C18            5.7295    -1.0849     0.8124 C.ar    
  19 C19            7.0046    -0.5188     0.8558 C.ar    
  20 C20            7.1713     0.8418     0.5886 C.ar    
  21 Cl21           6.2824     3.3122    -0.0534 Cl      
  22 C22            8.1392    -1.3305     1.1791 C.1     
  23 C23            2.0886    -0.6000     5.2472 C.3     
  24 C24            1.3638    -1.0019     3.9611 C.3     
  25 C25            9.0694    -1.9959     1.4442 C.1     
  26 H26           -0.2459     1.1268     2.0869 H       
  27 H27           -1.1405    -0.1813     0.2043 H       
  28 H28            2.7207     3.0097     2.0386 H       
  29 H29            3.3494    -0.0657     3.4601 H       
  30 H30            3.8258     2.7652    -0.3545 H       
  31 H31            3.6522    -0.7394     0.4681 H       
  32 H32            5.5974    -2.1360     1.0227 H       
  33 H33            8.1567     1.2824     0.6211 H       
  34 H34            2.8492    -1.2804     5.6300 H       
  35 H35            1.5135    -0.0645     6.0026 H       
  36 H36            0.3120    -0.7309     3.8703 H       
  37 H37            1.6477    -1.9468     3.4977 H       
  38 H38            9.9013    -2.5911     1.6812 H       
@<TRIPOS>BOND
   1    1    2 ar
   2    1    6 ar
   3    1   26 1
   4    2    3 ar
   5    2   27 1
   6    3    4 ar
   7    3   12 1
   8    4    5 ar
   9    4   13 1
  10    5    6 ar
  11    5   14 1
  12    6    7 1
  13    7    8 am
  14    7   28 1
  15    8    9 1
  16    8   10 2
  17    8   11 2
  18    9   23 1
  19    9   24 1
  20    9   29 1
  21   14   15 1
  22   14   30 1
  23   15   16 ar
  24   15   17 ar
  25   16   21 1
  26   16   20 ar
  27   17   18 ar
  28   17   31 1
  29   18   19 ar
  30   18   32 1
  31   19   20 ar
  32   19   22 1
  33   20   33 1
  34   22   25 3
  35   23   24 1
  36   23   34 1
  37   23   35 1
  38   24   36 1
  39   24   37 1
  40   25   38 1

#	End of record

