#	Name: ASD01815640
#	Creating user name:	WinNT
#	Creation time:	15. 06. 2019 19:33

#	Modifying user name:	WinNT
#	Modification time:	15. 06. 2019 19:33

#	Program:	/corina/corina34_cracker 3.40 0067  02.08.2006

@<TRIPOS>MOLECULE
ASD01815640
  34   36    0    0    0
SMALL
NO_CHARGES


@<TRIPOS>ATOM
   1 C1            -0.0167     1.3820     0.0096 C.ar    
   2 C2             0.0021    -0.0041     0.0020 C.ar    
   3 C3             1.1959    -0.6932    -0.0130 C.ar    
   4 C4             2.4016     0.0019    -0.0208 C.ar    
   5 C5             2.3831     1.4075    -0.0131 C.ar    
   6 C6             1.1665     2.0939     0.0022 C.ar    
   7 N7             3.6010    -0.6771    -0.0354 N.pl3   
   8 C8             4.7870    -0.0549    -0.0429 C.2     
   9 C9             4.8957     1.3208    -0.0361 C.2     
  10 C10            3.6667     2.1313    -0.0214 C.2     
  11 O11            3.7091     3.3491    -0.0154 O.2     
  12 C12            6.2161     1.9660    -0.0443 C.2     
  13 O13            7.2243     1.2870    -0.0571 O.2     
  14 O14            6.3092     3.3109    -0.0375 O.3     
  15 C15            3.5775    -2.1419    -0.0425 C.3     
  16 C16            3.5562    -2.6371    -1.4656 C.ar    
  17 C17            4.7255    -3.3369    -3.4344 C.ar    
  18 C18            3.5171    -3.5453    -4.0774 C.ar    
  19 C19            2.3284    -3.2936    -3.4136 C.ar    
  20 F20            1.1476     3.4448     0.0096 F       
  21 C21            2.3492    -2.8395    -2.1085 C.ar    
  22 C22            4.7438    -2.8832    -2.1291 C.ar    
  23 F23            3.4981    -3.9884    -5.3536 F       
  24 H24           -0.9604     1.9071     0.0169 H       
  25 H25           -0.9295    -0.5505     0.0083 H       
  26 H26            1.1956    -1.7731    -0.0185 H       
  27 H27            5.6884    -0.6497    -0.0543 H       
  28 H28            7.1990     3.6894    -0.0433 H       
  29 H29            4.4663    -2.5220     0.4612 H       
  30 H30            2.6866    -2.4935     0.4780 H       
  31 H31            5.6533    -3.5329    -3.9512 H       
  32 H32            1.3853    -3.4555    -3.9143 H       
  33 H33            1.4221    -2.6430    -1.5905 H       
  34 H34            5.6862    -2.7205    -1.6274 H       
@<TRIPOS>BOND
   1    1    2 ar
   2    1    6 ar
   3    1   24 1
   4    2    3 ar
   5    2   25 1
   6    3    4 ar
   7    3   26 1
   8    4    5 ar
   9    4    7 1
  10    5    6 ar
  11    5   10 1
  12    6   20 1
  13    7    8 1
  14    7   15 1
  15    8    9 2
  16    8   27 1
  17    9   10 1
  18    9   12 1
  19   10   11 2
  20   12   13 2
  21   12   14 1
  22   14   28 1
  23   15   16 1
  24   15   29 1
  25   15   30 1
  26   16   22 ar
  27   16   21 ar
  28   17   18 ar
  29   17   22 ar
  30   17   31 1
  31   18   19 ar
  32   18   23 1
  33   19   21 ar
  34   19   32 1
  35   21   33 1
  36   22   34 1

#	End of record

