#	Name: ASD01913661
#	Creating user name:	WinNT
#	Creation time:	15. 06. 2019 20:02

#	Modifying user name:	WinNT
#	Modification time:	15. 06. 2019 20:02

#	Program:	/corina/corina34_cracker 3.40 0067  02.08.2006

@<TRIPOS>MOLECULE
ASD01913661
  38   40    0    0    0
SMALL
NO_CHARGES


@<TRIPOS>ATOM
   1 C1            -0.0274     1.3552     0.0065 C.ar    
   2 C2            -0.0117    -0.0291     0.0042 C.ar    
   3 C3            -1.2010    -0.7332     0.0167 C.ar    
   4 C4            -2.4058    -0.0558     0.0310 C.ar    
   5 C5            -2.4227     1.3268     0.0334 C.ar    
   6 C6            -1.2349     2.0328     0.0272 C.ar    
   7 C7            -3.7370     2.0639     0.0486 C.3     
   8 O8            -4.1381     2.2948     1.4005 O.3     
   9 C9            -5.3078     2.9516     1.5916 C.ar    
  10 N10           -6.0148     3.3435     0.5427 N.ar    
  11 C11           -7.1573     3.9843     0.6794 C.ar    
  12 C12           -7.6604     4.2720     1.9490 C.ar    
  13 C13           -6.9313     3.8681     3.0773 C.ar    
  14 C14           -5.7512     3.1993     2.8870 C.ar    
  15 C15           -8.9401     4.9909     2.1022 C.2     
  16 N16           -9.6322     5.3747     1.0113 N.am    
  17 O17           -9.3701     5.2369     3.2125 O.2     
  18 F18            1.1344     2.0445    -0.0057 F       
  19 C19          -10.8905     5.9568     1.1535 C.ar    
  20 N20          -11.4416     6.0417     2.3538 N.ar    
  21 C21          -12.6303     6.5853     2.5330 C.ar    
  22 C22          -13.3470     7.0890     1.4643 C.ar    
  23 C23          -12.8033     7.0190     0.1877 C.ar    
  24 C24          -11.5526     6.4479     0.0336 C.ar    
  25 Cl25         -14.9104     7.8012     1.7142 Cl      
  26 H26            0.9295    -0.5586    -0.0077 H       
  27 H27           -1.1890    -1.8132     0.0149 H       
  28 H28           -3.3346    -0.6068     0.0401 H       
  29 H29           -1.2484     3.1127     0.0294 H       
  30 H30           -3.6241     3.0187    -0.4650 H       
  31 H31           -4.4947     1.4662    -0.4582 H       
  32 H32           -7.7088     4.2897    -0.1975 H       
  33 H33           -7.2940     4.0763     4.0730 H       
  34 H34           -5.1663     2.8744     3.7347 H       
  35 H35           -9.2546     5.2459     0.1272 H       
  36 H36          -13.0486     6.6369     3.5273 H       
  37 H37          -13.3429     7.4050    -0.6644 H       
  38 H38          -11.0999     6.3775    -0.9444 H       
@<TRIPOS>BOND
   1    1    2 ar
   2    1   18 1
   3    1    6 ar
   4    2    3 ar
   5    2   26 1
   6    3    4 ar
   7    3   27 1
   8    4    5 ar
   9    4   28 1
  10    5    6 ar
  11    5    7 1
  12    6   29 1
  13    7    8 1
  14    7   30 1
  15    7   31 1
  16    8    9 1
  17    9   10 ar
  18    9   14 ar
  19   10   11 ar
  20   11   12 ar
  21   11   32 1
  22   12   13 ar
  23   12   15 1
  24   13   14 ar
  25   13   33 1
  26   14   34 1
  27   15   16 am
  28   15   17 2
  29   16   19 1
  30   16   35 1
  31   19   20 ar
  32   19   24 ar
  33   20   21 ar
  34   21   22 ar
  35   21   36 1
  36   22   23 ar
  37   22   25 1
  38   23   24 ar
  39   23   37 1
  40   24   38 1

#	End of record

