#	Name: ASD04590943
#	Creating user name:	WinNT
#	Creation time:	15. 06. 2019 20:51

#	Modifying user name:	WinNT
#	Modification time:	15. 06. 2019 20:51

#	Program:	/corina/corina34_cracker 3.40 0067  02.08.2006

@<TRIPOS>MOLECULE
ASD04590943
  63   68    0    0    0
SMALL
NO_CHARGES


@<TRIPOS>ATOM
   1 N1            -0.0170     1.3235    -0.0111 N.ar    
   2 C2             0.0017    -0.0035    -0.0049 C.ar    
   3 N3             1.1296    -0.6948    -0.0122 N.ar    
   4 C4             2.3050    -0.0727    -0.0263 C.ar    
   5 C5             2.3190     1.3364    -0.0332 C.ar    
   6 C6             1.1070     2.0203    -0.0251 C.ar    
   7 N7             3.6031    -0.5195    -0.0364 N.pl3   
   8 C8             4.4824     0.5494    -0.0499 C.ar    
   9 C9             3.7313     1.7383    -0.0485 C.ar    
  10 C10            5.8681     0.6416    -0.0635 C.ar    
  11 N11            6.4614     1.8179    -0.0743 N.ar    
  12 C12            5.7851     2.9531    -0.0734 C.ar    
  13 C13            4.4065     2.9583    -0.0612 C.ar    
  14 N14           -1.2019    -0.6887     0.0103 N.pl3   
  15 C15           -2.4022     0.0122     0.1313 C.ar    
  16 N16           -2.3890     1.3198     0.3320 N.ar    
  17 N17           -3.4682     2.0044     0.4491 N.ar    
  18 C18           -4.6669     1.4482     0.3771 C.ar    
  19 C19           -4.7831     0.0736     0.1674 C.ar    
  20 C20           -3.6191    -0.6635     0.0353 C.ar    
  21 N21           -5.8101     2.2333     0.5109 N.3     
  22 C22            4.0015    -1.9293    -0.0330 C.3     
  23 C23           -5.4582     3.6446     0.7204 C.3     
  24 C24            3.4416    -2.6517    -1.2757 C.3     
  25 O25            2.3028    -1.9499    -1.7782 O.3     
  26 C26            3.0314    -4.0620    -0.8168 C.3     
  27 C27            3.3564    -4.1474     0.6888 C.3     
  28 C28            3.3545    -2.6726     1.1621 C.3     
  29 C29           -6.6929     2.0809    -0.6540 C.3     
  30 C30           -7.9700     2.8948    -0.4328 C.3     
  31 N31           -7.6181     4.3062    -0.2234 N.3     
  32 C32           -6.7353     4.4586     0.9416 C.3     
  33 C33           -7.4523     3.9529     2.1950 C.3     
  34 C34           -6.3753     5.9349     1.1195 C.3     
  35 H35            1.0847     3.1001    -0.0304 H       
  36 H36            6.4646    -0.2587    -0.0648 H       
  37 H37            6.3205     3.8910    -0.0822 H       
  38 H38            3.8598     3.8897    -0.0612 H       
  39 H39           -1.2103    -1.6559    -0.0632 H       
  40 H40           -5.7517    -0.4000     0.1055 H       
  41 H41           -3.6517    -1.7304    -0.1288 H       
  42 H42            5.0874    -2.0178     0.0028 H       
  43 H43           -4.8146     3.7329     1.5957 H       
  44 H44           -4.9334     4.0226    -0.1569 H       
  45 H45            4.2093    -2.7177    -2.0467 H       
  46 H46            1.9047    -2.3552    -2.5607 H       
  47 H47            1.9637    -4.2110    -0.9774 H       
  48 H48            3.6003    -4.8131    -1.3648 H       
  49 H49            2.5891    -4.7172     1.2130 H       
  50 H50            4.3378    -4.5961     0.8424 H       
  51 H51            3.9576    -2.5550     2.0624 H       
  52 H52            2.3362    -2.3219     1.3295 H       
  53 H53           -6.1821     2.4411    -1.5470 H       
  54 H54           -6.9494     1.0291    -0.7808 H       
  55 H55           -8.6136     2.8065    -1.3081 H       
  56 H56           -8.4948     2.5168     0.4445 H       
  57 H57           -7.1962     4.7003    -1.0508 H       
  58 H58           -7.7077     2.9009     2.0680 H       
  59 H59           -6.7973     4.0660     3.0588 H       
  60 H60           -8.3628     4.5315     2.3511 H       
  61 H61           -7.2852     6.5146     1.2751 H       
  62 H62           -5.7205     6.0476     1.9836 H       
  63 H63           -5.8637     6.2943     0.2267 H       
@<TRIPOS>BOND
   1    1    2 ar
   2    1    6 ar
   3    2    3 ar
   4    2   14 1
   5    3    4 ar
   6    4    5 ar
   7    4    7 1
   8    5    6 ar
   9    5    9 1
  10    6   35 1
  11    7    8 1
  12    7   22 1
  13    8    9 ar
  14    8   10 ar
  15    9   13 ar
  16   10   11 ar
  17   10   36 1
  18   11   12 ar
  19   12   13 ar
  20   12   37 1
  21   13   38 1
  22   14   15 1
  23   14   39 1
  24   15   16 ar
  25   15   20 ar
  26   16   17 ar
  27   17   18 ar
  28   18   19 ar
  29   18   21 1
  30   19   20 ar
  31   19   40 1
  32   20   41 1
  33   21   29 1
  34   21   23 1
  35   22   24 1
  36   22   28 1
  37   22   42 1
  38   23   32 1
  39   23   43 1
  40   23   44 1
  41   24   25 1
  42   24   26 1
  43   24   45 1
  44   25   46 1
  45   26   27 1
  46   26   47 1
  47   26   48 1
  48   27   28 1
  49   27   49 1
  50   27   50 1
  51   28   51 1
  52   28   52 1
  53   29   30 1
  54   29   53 1
  55   29   54 1
  56   30   31 1
  57   30   55 1
  58   30   56 1
  59   31   32 1
  60   31   57 1
  61   32   33 1
  62   32   34 1
  63   33   58 1
  64   33   59 1
  65   33   60 1
  66   34   61 1
  67   34   62 1
  68   34   63 1

#	End of record

