#	Name: ASD01948293
#	Creating user name:	WinNT
#	Creation time:	15. 06. 2019 20:14

#	Modifying user name:	WinNT
#	Modification time:	15. 06. 2019 20:14

#	Program:	/corina/corina34_cracker 3.40 0067  02.08.2006

@<TRIPOS>MOLECULE
ASD01948293
  66   68    0    0    0
SMALL
NO_CHARGES


@<TRIPOS>ATOM
   1 C1             2.8180     0.3108     2.6755 C.ar    
   2 C2             3.9124    -0.0886     3.4223 C.ar    
   3 C3             5.1772    -0.0750     2.8632 C.ar    
   4 C4             5.3530     0.3376     1.5562 C.ar    
   5 C5             4.2583     0.7388     0.8029 C.ar    
   6 C6             2.9866     0.7244     1.3672 C.ar    
   7 N7             6.2240     0.2887    -1.8134 N.am    
   8 C8             5.7043     1.2851    -1.0411 C.2     
   9 N9             4.4334     1.1575    -0.5205 N.pl3   
  10 C10            7.4617     0.3919    -2.3316 C.2     
  11 C11            8.2395     1.5267    -2.0858 C.2     
  12 C12            7.7312     2.5466    -1.3062 C.2     
  13 C13            6.4450     2.4230    -0.7764 C.2     
  14 N14            5.9058     3.4495     0.0210 N.am    
  15 I15            3.6527    -0.7146     5.4046 I       
  16 F16            1.9181     1.1135     0.6376 F       
  17 C17            5.4272    -0.9120    -2.0774 C.3     
  18 S18            6.7410     4.8649     0.2249 S.o2    
  19 O19            6.0984     5.4957     1.3242 O.2     
  20 O20            8.1010     4.4610     0.3047 O.2     
  21 C21            6.4410     5.7919    -1.3052 C.3     
  22 C22            9.6253     1.6364    -2.6678 C.3     
  23 C23            6.4041     5.0012    -2.6145 C.3     
  24 C24            5.1091     5.5604    -2.0218 C.3     
  25 C25            7.0310     7.2029    -1.3484 C.3     
  26 C26            6.4876     8.0191    -0.1740 C.3     
  27 O27            7.2212     7.6976     1.0095 O.3     
  28 O28           10.2100     2.8796    -2.2749 O.3     
  29 C29           11.5322     3.0845    -2.7768 C.3     
  30 O30            7.9085    -0.5126    -3.0211 O.2     
  31 C31           12.0559     4.4393    -2.2962 C.3     
  32 C32           12.1997     4.4194    -0.7731 C.3     
  33 C33           13.4193     4.7143    -2.9336 C.3     
  34 C34            6.6374     9.5113    -0.4773 C.3     
  35 O35            6.0256    10.2731     0.5654 O.3     
  36 H36            1.8310     0.2952     3.1136 H       
  37 H37            6.0291    -0.3871     3.4492 H       
  38 H38            6.3414     0.3484     1.1212 H       
  39 H39            3.6610     1.3580    -1.0720 H       
  40 H40            8.3214     3.4291    -1.1078 H       
  41 H41            5.0450     3.3280     0.4513 H       
  42 H42            4.7732    -0.7336    -2.9311 H       
  43 H43            6.0914    -1.7478    -2.2970 H       
  44 H44            4.8240    -1.1478    -1.2007 H       
  45 H45           10.2395     0.8140    -2.3011 H       
  46 H46            9.5673     1.5897    -3.7553 H       
  47 H47            6.7999     5.4864    -3.5068 H       
  48 H48            6.5601     3.9240    -2.5565 H       
  49 H49            4.4132     4.8511    -1.5739 H       
  50 H50            4.6530     6.4135    -2.5242 H       
  51 H51            8.1173     7.1447    -1.2787 H       
  52 H52            6.7524     7.6847    -2.2856 H       
  53 H53            5.4342     7.7829    -0.0239 H       
  54 H54            8.1683     7.8825     0.9475 H       
  55 H55           12.1860     2.2921    -2.4123 H       
  56 H56           11.5138     3.0679    -3.8665 H       
  57 H57           11.3552     5.2229    -2.5847 H       
  58 H58           12.5728     5.3846    -0.4307 H       
  59 H59           11.2284     4.2234    -0.3189 H       
  60 H60           12.9004     3.6358    -0.4845 H       
  61 H61           13.3169     4.7286    -4.0187 H       
  62 H62           13.7925     5.6796    -2.5912 H       
  63 H63           14.1200     3.9308    -2.6450 H       
  64 H64            7.6957     9.7649    -0.5396 H       
  65 H65            6.1526     9.7396    -1.4265 H       
  66 H66            6.0826    11.2301     0.4388 H       
@<TRIPOS>BOND
   1    1    2 ar
   2    1    6 ar
   3    1   36 1
   4    2    3 ar
   5    2   15 1
   6    3    4 ar
   7    3   37 1
   8    4    5 ar
   9    4   38 1
  10    5    6 ar
  11    5    9 1
  12    6   16 1
  13    7    8 1
  14    7   10 am
  15    7   17 1
  16    8    9 1
  17    8   13 2
  18    9   39 1
  19   10   11 1
  20   10   30 2
  21   11   12 2
  22   11   22 1
  23   12   13 1
  24   12   40 1
  25   13   14 1
  26   14   18 am
  27   14   41 1
  28   17   42 1
  29   17   43 1
  30   17   44 1
  31   18   19 2
  32   18   20 2
  33   18   21 1
  34   21   23 1
  35   21   25 1
  36   21   24 1
  37   22   28 1
  38   22   45 1
  39   22   46 1
  40   23   24 1
  41   23   47 1
  42   23   48 1
  43   24   49 1
  44   24   50 1
  45   25   26 1
  46   25   51 1
  47   25   52 1
  48   26   27 1
  49   26   34 1
  50   26   53 1
  51   27   54 1
  52   28   29 1
  53   29   31 1
  54   29   55 1
  55   29   56 1
  56   31   32 1
  57   31   33 1
  58   31   57 1
  59   32   58 1
  60   32   59 1
  61   32   60 1
  62   33   61 1
  63   33   62 1
  64   33   63 1
  65   34   35 1
  66   34   64 1
  67   34   65 1
  68   35   66 1

#	End of record

