#	Name: ASD00190071
#	Creating user name:	WinNT
#	Creation time:	15. 06. 2019 18:33

#	Modifying user name:	WinNT
#	Modification time:	15. 06. 2019 18:33

#	Program:	/corina/corina34_cracker 3.40 0067  02.08.2006

@<TRIPOS>MOLECULE
ASD00190071
  47   50    0    0    0
SMALL
NO_CHARGES


@<TRIPOS>ATOM
   1 C1            -0.9352     1.5170     1.0815 C.3     
   2 C2            -0.7530     0.0099     0.8873 C.3     
   3 N3             0.0058    -0.2379    -0.3453 N.3     
   4 C4             1.3472     0.3550    -0.2713 C.3     
   5 C5             1.2277     1.8723    -0.1117 C.3     
   6 C6             0.4396     2.1860     1.1631 C.3     
   7 C7             2.6252     2.4872    -0.0126 C.3     
   8 C8             0.0765    -1.5895    -0.6196 C.ar    
   9 N9             1.2503    -2.1918    -0.7752 N.ar    
  10 C10            1.3266    -3.4848    -1.0375 C.ar    
  11 N11            0.2626    -4.2478    -1.1596 N.ar    
  12 C12           -0.9595    -3.7371    -1.0210 C.ar    
  13 C13           -1.0939    -2.3644    -0.7355 C.ar    
  14 N14           -2.2253    -4.2462    -1.0866 N.pl3   
  15 N15           -3.1295    -3.2028    -0.8505 N.2     
  16 C16           -2.4766    -2.0946    -0.6424 C.2     
  17 C17           -2.5611    -5.5810    -1.3457 C.ar    
  18 C18           -1.9119    -6.6055    -0.6698 C.ar    
  19 C19           -2.2454    -7.9209    -0.9277 C.ar    
  20 C20           -3.2245    -8.2179    -1.8576 C.ar    
  21 C21           -3.8727    -7.1997    -2.5329 C.ar    
  22 C22           -3.5482    -5.8824    -2.2751 C.ar    
  23 C23           -4.2554    -4.7735    -3.0109 C.3     
  24 C24           -3.5859    -9.6541    -2.1365 C.3     
  25 H25           -1.4905     1.9280     0.2384 H       
  26 H26           -1.4849     1.7011     2.0045 H       
  27 H27           -0.2097    -0.4027     1.7374 H       
  28 H28           -1.7301    -0.4676     0.8145 H       
  29 H29            1.8807    -0.0593     0.5843 H       
  30 H30            1.8955     0.1280    -1.1855 H       
  31 H31            0.7065     2.2889    -0.9736 H       
  32 H32            0.3147     3.2647     1.2579 H       
  33 H33            0.9801     1.8035     2.0289 H       
  34 H34            3.1869     2.2606    -0.9188 H       
  35 H35            2.5395     3.5678     0.1010 H       
  36 H36            3.1448     2.0712     0.8505 H       
  37 H37            2.3021    -3.9328    -1.1566 H       
  38 H38           -2.9188    -1.1313    -0.4349 H       
  39 H39           -1.1468    -6.3742     0.0564 H       
  40 H40           -1.7406    -8.7183    -0.4026 H       
  41 H41           -4.6368    -7.4349    -3.2589 H       
  42 H42           -5.0854    -4.4079    -2.4063 H       
  43 H43           -3.5563    -3.9587    -3.1989 H       
  44 H44           -4.6360    -5.1519    -3.9596 H       
  45 H45           -4.3860    -9.9645    -1.4645 H       
  46 H46           -3.9209    -9.7506    -3.1692 H       
  47 H47           -2.7121   -10.2861    -1.9774 H       
@<TRIPOS>BOND
   1    1    2 1
   2    1    6 1
   3    1   25 1
   4    1   26 1
   5    2    3 1
   6    2   27 1
   7    2   28 1
   8    3    4 1
   9    3    8 1
  10    4    5 1
  11    4   29 1
  12    4   30 1
  13    5    6 1
  14    5    7 1
  15    5   31 1
  16    6   32 1
  17    6   33 1
  18    7   34 1
  19    7   35 1
  20    7   36 1
  21    8    9 ar
  22    8   13 ar
  23    9   10 ar
  24   10   11 ar
  25   10   37 1
  26   11   12 ar
  27   12   13 ar
  28   12   14 1
  29   13   16 1
  30   14   15 1
  31   14   17 1
  32   15   16 2
  33   16   38 1
  34   17   18 ar
  35   17   22 ar
  36   18   19 ar
  37   18   39 1
  38   19   20 ar
  39   19   40 1
  40   20   21 ar
  41   20   24 1
  42   21   22 ar
  43   21   41 1
  44   22   23 1
  45   23   42 1
  46   23   43 1
  47   23   44 1
  48   24   45 1
  49   24   46 1
  50   24   47 1

#	End of record

