#	Name: ASD01230880
#	Creating user name:	WinNT
#	Creation time:	15. 06. 2019 19:15

#	Modifying user name:	WinNT
#	Modification time:	15. 06. 2019 19:15

#	Program:	/corina/corina34_cracker 3.40 0067  02.08.2006

@<TRIPOS>MOLECULE
ASD01230880
  43   45    0    0    0
SMALL
NO_CHARGES


@<TRIPOS>ATOM
   1 S1            -0.1523     1.6436    -0.2546 S.o2    
   2 N2            -0.0815    -0.0072    -0.1669 N.am    
   3 C3             0.9505    -0.6866    -0.6006 C.2     
   4 N4             2.0726    -0.1511    -1.1666 N.pl3   
   5 C5             2.2527     1.2788    -1.4310 C.3     
   6 C6             1.6045     2.1165    -0.3249 C.3     
   7 C7             0.8665    -2.1579    -0.4510 C.2     
   8 C8             1.9382    -2.9363    -0.8523 C.2     
   9 C9             3.0672    -2.3084    -1.3897 C.2     
  10 C10            3.1117    -0.9708    -1.5286 C.2     
  11 C11           -0.3361    -2.7815     0.1154 C.2     
  12 C12           -1.3167    -2.0126     0.6248 C.2     
  13 C13           -2.5932    -2.6224     1.0340 C.ar    
  14 C14           -3.6139    -1.8271     1.5635 C.ar    
  15 C15           -4.8063    -2.4055     1.9445 C.ar    
  16 C16           -4.9940    -3.7695     1.8040 C.ar    
  17 C17           -3.9883    -4.5632     1.2807 C.ar    
  18 C18           -2.7924    -3.9987     0.8898 C.ar    
  19 C19           -6.3000    -4.3936     2.2233 C.3     
  20 C20           -6.9518    -5.0718     1.0166 C.3     
  21 C21           -6.0409    -5.4340     3.3148 C.3     
  22 O22           -0.7960     1.9085    -1.4935 O.2     
  23 O23           -0.7332     2.0427     0.9793 O.2     
  24 H24            3.3182     1.5047    -1.4754 H       
  25 H25            1.7928     1.5284    -2.3872 H       
  26 H26            1.6946     3.1769    -0.5609 H       
  27 H27            2.0845     1.9055     0.6307 H       
  28 H28            1.9037    -4.0111    -0.7520 H       
  29 H29            3.9135    -2.9049    -1.6970 H       
  30 H30            4.0031    -0.5233    -1.9427 H       
  31 H31           -0.4340    -3.8570     0.1233 H       
  32 H32           -1.1673    -0.9485     0.7333 H       
  33 H33           -3.4688    -0.7627     1.6741 H       
  34 H34           -5.5957    -1.7926     2.3540 H       
  35 H35           -4.1421    -5.6269     1.1741 H       
  36 H36           -2.0103    -4.6186     0.4772 H       
  37 H37           -6.9649    -3.6206     2.6087 H       
  38 H38           -6.2869    -5.8448     0.6313 H       
  39 H39           -7.8964    -5.5233     1.3199 H       
  40 H40           -7.1364    -4.3306     0.2390 H       
  41 H41           -5.5765    -4.9508     4.1744 H       
  42 H42           -6.9855    -5.8854     3.6181 H       
  43 H43           -5.3759    -6.2070     2.9294 H       
@<TRIPOS>BOND
   1    1    2 am
   2    1    6 1
   3    1   22 2
   4    1   23 2
   5    2    3 2
   6    3    4 1
   7    3    7 1
   8    4    5 1
   9    4   10 1
  10    5    6 1
  11    5   24 1
  12    5   25 1
  13    6   26 1
  14    6   27 1
  15    7    8 2
  16    7   11 1
  17    8    9 1
  18    8   28 1
  19    9   10 2
  20    9   29 1
  21   10   30 1
  22   11   12 2
  23   11   31 1
  24   12   13 1
  25   12   32 1
  26   13   14 ar
  27   13   18 ar
  28   14   15 ar
  29   14   33 1
  30   15   16 ar
  31   15   34 1
  32   16   17 ar
  33   16   19 1
  34   17   18 ar
  35   17   35 1
  36   18   36 1
  37   19   20 1
  38   19   21 1
  39   19   37 1
  40   20   38 1
  41   20   39 1
  42   20   40 1
  43   21   41 1
  44   21   42 1
  45   21   43 1

#	End of record

