#	Name: ASD03730321
#	Creating user name:	WinNT
#	Creation time:	15. 06. 2019 20:44

#	Modifying user name:	WinNT
#	Modification time:	15. 06. 2019 20:44

#	Program:	/corina/corina34_cracker 3.40 0067  02.08.2006

@<TRIPOS>MOLECULE
ASD03730321
  58   63    0    0    0
SMALL
NO_CHARGES


@<TRIPOS>ATOM
   1 N1             0.8732     0.9292     0.7825 N.3     
   2 C2             1.2131    -0.5039     0.9454 C.3     
   3 O3             2.4478    -0.6387     0.2191 O.3     
   4 C4             3.0537     0.5842     0.2458 C.ar    
   5 C5             2.1174     1.5594     0.5867 C.ar    
   6 O6             5.9800     2.8471    -0.1350 O.3     
   7 C7             6.0141     4.1588     0.4587 C.3     
   8 C8             4.5345     4.5651     0.4564 C.3     
   9 C9             3.8136     3.2439     0.4324 C.ar    
  10 C10            4.7568     2.2832     0.0813 C.ar    
  11 C11            2.5045     2.8861     0.6795 C.ar    
  12 C12            4.3657     0.9503    -0.0038 C.ar    
  13 N13            3.6897     6.5536     1.2019 N.am    
  14 C14            4.1782     5.3851     1.6631 C.2     
  15 C15            4.1873     5.4233    -0.7235 C.ar    
  16 C16            4.2782     5.2482    -2.0930 C.ar    
  17 C17            3.8585     6.2587    -2.9505 C.ar    
  18 C18            3.3524     7.4342    -2.4296 C.ar    
  19 C19            3.2633     7.6113    -1.0642 C.ar    
  20 C20            3.6813     6.6062    -0.1942 C.ar    
  21 O21            4.3051     5.0597     2.8247 O.2     
  22 N22            4.7919     4.0570    -2.6136 N.pl3   
  23 C23            6.4147     5.2267    -5.5700 C.ar    
  24 N24            5.7615     5.2145    -4.4257 N.ar    
  25 C25            5.4790     4.0661    -3.8177 C.ar    
  26 C26            5.8860     2.8693    -4.4115 C.ar    
  27 C27            6.5678     2.9313    -5.6107 C.ar    
  28 N28            6.8121     4.1151    -6.1553 N.ar    
  29 C29            0.2019     1.4506     1.9807 C.3     
  30 C30            1.2047     1.5292     3.1336 C.3     
  31 C31            0.5055     2.0722     4.3815 C.3     
  32 C32            1.5083     2.1509     5.5344 C.3     
  33 C33            0.8091     2.6939     6.7823 C.3     
  34 H34            1.3581    -0.7470     1.9980 H       
  35 H35            0.4391    -1.1343     0.5076 H       
  36 H36            6.4011     4.1127     1.4767 H       
  37 H37            6.6044     4.8437    -0.1500 H       
  38 H38            1.7801     3.6417     0.9454 H       
  39 H39            5.0916     0.1951    -0.2664 H       
  40 H40            3.3800     7.2741     1.7727 H       
  41 H41            3.9280     6.1256    -4.0200 H       
  42 H42            3.0250     8.2192    -3.0952 H       
  43 H43            2.8668     8.5342    -0.6673 H       
  44 H44            4.6677     3.2239    -2.1324 H       
  45 H45            6.6265     6.1740    -6.0435 H       
  46 H46            5.6732     1.9191    -3.9442 H       
  47 H47            6.8984     2.0264    -6.0989 H       
  48 H48           -0.1915     2.4456     1.7728 H       
  49 H49           -0.6172     0.7863     2.2563 H       
  50 H50            1.5981     0.5342     3.3415 H       
  51 H51            2.0238     2.1935     2.8580 H       
  52 H52            0.1121     3.0672     4.1736 H       
  53 H53           -0.3136     1.4079     4.6571 H       
  54 H54            1.9017     1.1558     5.7423 H       
  55 H55            2.3273     2.8152     5.2588 H       
  56 H56           -0.0100     2.0296     7.0578 H       
  57 H57            1.5235     2.7499     7.6036 H       
  58 H58            0.4157     3.6889     6.5744 H       
@<TRIPOS>BOND
   1    1    2 1
   2    1    5 1
   3    1   29 1
   4    2    3 1
   5    2   34 1
   6    2   35 1
   7    3    4 1
   8    4    5 ar
   9    4   12 ar
  10    5   11 ar
  11    6    7 1
  12    6   10 1
  13    7    8 1
  14    7   36 1
  15    7   37 1
  16    8    9 1
  17    8   14 1
  18    8   15 1
  19    9   10 ar
  20    9   11 ar
  21   10   12 ar
  22   11   38 1
  23   12   39 1
  24   13   14 am
  25   13   20 1
  26   13   40 1
  27   14   21 2
  28   15   16 ar
  29   15   20 ar
  30   16   17 ar
  31   16   22 1
  32   17   18 ar
  33   17   41 1
  34   18   19 ar
  35   18   42 1
  36   19   20 ar
  37   19   43 1
  38   22   25 1
  39   22   44 1
  40   23   24 ar
  41   23   28 ar
  42   23   45 1
  43   24   25 ar
  44   25   26 ar
  45   26   27 ar
  46   26   46 1
  47   27   28 ar
  48   27   47 1
  49   29   30 1
  50   29   48 1
  51   29   49 1
  52   30   31 1
  53   30   50 1
  54   30   51 1
  55   31   32 1
  56   31   52 1
  57   31   53 1
  58   32   33 1
  59   32   54 1
  60   32   55 1
  61   33   56 1
  62   33   57 1
  63   33   58 1

#	End of record

