#	Name: ASD01140474
#	Creating user name:	WinNT
#	Creation time:	15. 06. 2019 19:00

#	Modifying user name:	WinNT
#	Modification time:	15. 06. 2019 19:00

#	Program:	/corina/corina34_cracker 3.40 0067  02.08.2006

@<TRIPOS>MOLECULE
ASD01140474
  51   54    0    0    0
SMALL
NO_CHARGES


@<TRIPOS>ATOM
   1 C1             0.8998     0.7701    -0.9506 C.ar    
   2 C2             1.2349    -0.5387    -1.2154 C.ar    
   3 C3             2.5628    -0.9388    -1.2212 C.ar    
   4 C4             3.5590    -0.0246    -0.9608 C.ar    
   5 C5             1.9079     1.7254    -0.6805 C.ar    
   6 N6             1.7741     3.0381    -0.4034 N.2     
   7 C7             3.2400     1.3052    -0.6905 C.ar    
   8 S8             4.2635     2.6922    -0.3248 S.3     
   9 C9             2.8442     3.7209    -0.1895 C.2     
  10 C10            5.0005    -0.4638    -0.9677 C.3     
  11 O11           -0.4061     1.1477    -0.9541 O.3     
  12 C12           -1.3734     0.1354    -1.2400 C.3     
  13 N13            2.8733     5.0747     0.1066 N.am    
  14 C14            1.6225     5.8322     0.1954 C.3     
  15 C15            4.0524     5.6943     0.3128 C.2     
  16 C16            1.2002     6.2681    -1.1840 C.ar    
  17 C17            1.1423     7.8787    -2.9382 C.ar    
  18 C18            1.5525     7.5204    -1.6629 C.ar    
  19 C19            0.4616     5.4221    -1.9898 C.ar    
  20 N20            0.0888     5.7964    -3.1980 N.ar    
  21 C21            0.4017     6.9818    -3.6841 C.ar    
  22 C22            4.0927     7.1854     0.5267 C.3     
  23 O23            5.0808     5.0517     0.3262 O.2     
  24 O24            5.4442     7.6002     0.7358 O.3     
  25 C25            5.6572     8.9259     0.9458 C.ar    
  26 C26            4.8061    11.1557     1.1697 C.ar    
  27 C27            4.5869     9.8085     0.9561 C.ar    
  28 C28            6.9447     9.3981     1.1557 C.ar    
  29 C29            7.1586    10.7461     1.3689 C.ar    
  30 C30            6.0908    11.6245     1.3731 C.ar    
  31 H31            0.4574    -1.2598    -1.4198 H       
  32 H32            2.8155    -1.9679    -1.4297 H       
  33 H33            5.4098    -0.3515    -1.9717 H       
  34 H34            5.5711     0.1513    -0.2719 H       
  35 H35            5.0634    -1.5089    -0.6645 H       
  36 H36           -1.2999    -0.6578    -0.4960 H       
  37 H37           -2.3728     0.5693    -1.2109 H       
  38 H38           -1.1852    -0.2775    -2.2311 H       
  39 H39            0.8466     5.2026     0.6309 H       
  40 H40            1.7732     6.7101     0.8237 H       
  41 H41            1.3982     8.8466    -3.3432 H       
  42 H42            2.1323     8.2010    -1.0570 H       
  43 H43            0.1868     4.4431    -1.6259 H       
  44 H44            0.0781     7.2534    -4.6781 H       
  45 H45            3.6897     7.6896    -0.3516 H       
  46 H46            3.4942     7.4435     1.4004 H       
  47 H47            3.9732    11.8432     1.1779 H       
  48 H48            3.5832     9.4428     0.7970 H       
  49 H49            7.7790     8.7123     1.1529 H       
  50 H50            8.1606    11.1141     1.5327 H       
  51 H51            6.2602    12.6781     1.5395 H       
@<TRIPOS>BOND
   1    1    2 ar
   2    1    5 ar
   3    1   11 1
   4    2    3 ar
   5    2   31 1
   6    3    4 ar
   7    3   32 1
   8    4    7 ar
   9    4   10 1
  10    5    7 ar
  11    5    6 1
  12    6    9 2
  13    7    8 1
  14    8    9 1
  15    9   13 1
  16   10   33 1
  17   10   34 1
  18   10   35 1
  19   11   12 1
  20   12   36 1
  21   12   37 1
  22   12   38 1
  23   13   14 1
  24   13   15 am
  25   14   16 1
  26   14   39 1
  27   14   40 1
  28   15   22 1
  29   15   23 2
  30   16   19 ar
  31   16   18 ar
  32   17   18 ar
  33   17   21 ar
  34   17   41 1
  35   18   42 1
  36   19   20 ar
  37   19   43 1
  38   20   21 ar
  39   21   44 1
  40   22   24 1
  41   22   45 1
  42   22   46 1
  43   24   25 1
  44   25   28 ar
  45   25   27 ar
  46   26   27 ar
  47   26   30 ar
  48   26   47 1
  49   27   48 1
  50   28   29 ar
  51   28   49 1
  52   29   30 ar
  53   29   50 1
  54   30   51 1

#	End of record

