#	Name: ASD01810619
#	Creating user name:	WinNT
#	Creation time:	15. 06. 2019 19:24

#	Modifying user name:	WinNT
#	Modification time:	15. 06. 2019 19:24

#	Program:	/corina/corina34_cracker 3.40 0067  02.08.2006

@<TRIPOS>MOLECULE
ASD01810619
  57   60    0    0    0
SMALL
NO_CHARGES


@<TRIPOS>ATOM
   1 N1             0.2474     1.8201     1.4568 N.am    
   2 C2             0.3642     1.1520     2.6214 C.2     
   3 O3             1.4644     0.8462     3.0392 O.2     
   4 N4            -0.7385     0.8227     3.3229 N.am    
   5 O5            -1.1723     0.5979     6.8705 O.3     
   6 C6            -0.3971     1.0743     5.7642 C.3     
   7 C7            -0.6116     0.0965     4.5889 C.3     
   8 C8            -1.9524    -0.5882     4.9702 C.3     
   9 C9            -1.8345    -0.6261     6.5147 C.3     
  10 C10            1.3951     2.2478     0.7764 C.ar    
  11 C11            1.3351     3.3595    -0.0601 C.ar    
  12 C12            2.4670     3.7853    -0.7342 C.ar    
  13 C13            3.6605     3.1108    -0.5812 C.ar    
  14 C14            3.7299     1.9952     0.2554 C.ar    
  15 C15            2.5901     1.5688     0.9399 C.ar    
  16 F16            0.1691     4.0242    -0.2145 F       
  17 C17            5.0072     1.2715     0.4206 C.2     
  18 O18            5.0059     0.0688     0.5975 O.2     
  19 N19            6.1739     1.9447     0.3752 N.am    
  20 C20            6.1890     3.4108     0.2807 C.3     
  21 C21            7.0561     3.9691     1.4135 C.3     
  22 C22            8.4415     3.3213     1.3568 C.3     
  23 C23            8.3078     1.8092     1.5511 C.3     
  24 C24            7.4549     1.2268     0.4255 C.3     
  25 F25            9.0271     3.5814     0.1132 F       
  26 C26            9.3082     3.8931     2.4490 C.ar    
  27 C27           10.6780     3.7017     2.4123 C.ar    
  28 C28           11.4773     4.2224     3.4088 C.ar    
  29 C29           10.9010     4.9444     4.4559 C.ar    
  30 C30            9.5179     5.1341     4.4864 C.ar    
  31 C31            8.7310     4.6120     3.4808 C.ar    
  32 C32           11.7245     5.4873     5.4940 C.1     
  33 N33           12.3778     5.9181     6.3175 N.1     
  34 H34           -0.6311     2.0014     1.0876 H       
  35 H35           -1.6162     1.0667     2.9896 H       
  36 H36           -0.7317     2.0722     5.4807 H       
  37 H37            0.6581     1.1001     6.0359 H       
  38 H38            0.1982    -0.6313     4.5371 H       
  39 H39           -2.8045     0.0146     4.6560 H       
  40 H40           -2.0114    -1.5946     4.5558 H       
  41 H41           -1.2386    -1.4835     6.8277 H       
  42 H42           -2.8245    -0.6665     6.9688 H       
  43 H43            2.4153     4.6479    -1.3821 H       
  44 H44            4.5414     3.4455    -1.1089 H       
  45 H45            2.6397     0.7090     1.5916 H       
  46 H46            6.6063     3.7107    -0.6806 H       
  47 H47            5.1729     3.7936     0.3757 H       
  48 H48            7.1542     5.0485     1.2985 H       
  49 H49            6.5891     3.7460     2.3728 H       
  50 H50            9.2968     1.3513     1.5340 H       
  51 H51            7.8290     1.6064     2.5091 H       
  52 H52            7.2737     0.1690     0.6160 H       
  53 H53            7.9775     1.3450    -0.5237 H       
  54 H54           11.1225     3.1431     1.6019 H       
  55 H55           12.5463     4.0717     3.3794 H       
  56 H56            9.0657     5.6915     5.2934 H       
  57 H57            7.6616     4.7614     3.5010 H       
@<TRIPOS>BOND
   1    1    2 am
   2    1   10 1
   3    1   34 1
   4    2    3 2
   5    2    4 am
   6    4    7 1
   7    4   35 1
   8    5    6 1
   9    5    9 1
  10    6    7 1
  11    6   36 1
  12    6   37 1
  13    7    8 1
  14    7   38 1
  15    8    9 1
  16    8   39 1
  17    8   40 1
  18    9   41 1
  19    9   42 1
  20   10   11 ar
  21   10   15 ar
  22   11   12 ar
  23   11   16 1
  24   12   13 ar
  25   12   43 1
  26   13   14 ar
  27   13   44 1
  28   14   15 ar
  29   14   17 1
  30   15   45 1
  31   17   18 2
  32   17   19 am
  33   19   20 1
  34   19   24 1
  35   20   21 1
  36   20   46 1
  37   20   47 1
  38   21   22 1
  39   21   48 1
  40   21   49 1
  41   22   23 1
  42   22   25 1
  43   22   26 1
  44   23   24 1
  45   23   50 1
  46   23   51 1
  47   24   52 1
  48   24   53 1
  49   26   27 ar
  50   26   31 ar
  51   27   28 ar
  52   27   54 1
  53   28   29 ar
  54   28   55 1
  55   29   30 ar
  56   29   32 1
  57   30   31 ar
  58   30   56 1
  59   31   57 1
  60   32   33 3

#	End of record

