#	Name: ASD01815964
#	Creating user name:	WinNT
#	Creation time:	15. 06. 2019 19:34

#	Modifying user name:	WinNT
#	Modification time:	15. 06. 2019 19:34

#	Program:	/corina/corina34_cracker 3.40 0067  02.08.2006

@<TRIPOS>MOLECULE
ASD01815964
  53   58    0    0    0
SMALL
NO_CHARGES


@<TRIPOS>ATOM
   1 C1            -0.0168     1.3813    -0.0546 C.ar    
   2 C2             0.0020    -0.0038    -0.0614 C.ar    
   3 C3             1.1998    -0.6916    -0.0548 C.ar    
   4 C4             2.4048     0.0058    -0.0417 C.ar    
   5 C5             2.3827     1.4099    -0.0352 C.ar    
   6 C6             1.1681     2.0925    -0.0415 C.ar    
   7 N7             3.6091    -0.6782    -0.0345 N.pl3   
   8 C8             4.8006    -0.0600    -0.0214 C.2     
   9 C9             4.9035     1.3090    -0.0141 C.2     
  10 C10            3.6706     2.1290    -0.0213 C.2     
  11 C11            6.0006     2.2715     0.0002 C.2     
  12 N12            5.4282     3.4947     0.0008 N.am    
  13 N13            4.0359     3.3789    -0.0123 N.2     
  14 C14            6.1302     4.7067     0.0123 C.ar    
  15 O15            7.1950     2.0213     0.0104 O.2     
  16 C16            3.5814    -2.1429    -0.0411 C.3     
  17 C17            3.4352    -2.6362    -1.4576 C.ar    
  18 C18            4.5685    -2.8817    -2.2149 C.ar    
  19 C19            4.4273    -3.3355    -3.5177 C.ar    
  20 C20            3.1368    -3.5275    -4.0155 C.ar    
  21 C21            2.0480    -3.2575    -3.1894 C.ar    
  22 N22            2.2299    -2.8329    -1.9559 N.ar    
  23 F23            1.1487     3.4433    -0.0354 F       
  24 F24            1.2021    -2.0426    -0.0607 F       
  25 C25            6.5799     5.2618    -1.1783 C.ar    
  26 C26            7.2720     6.4570    -1.1638 C.ar    
  27 C27            7.5178     7.1021     0.0345 C.ar    
  28 C28            7.0722     6.5536     1.2229 C.ar    
  29 C29            6.3735     5.3599     1.2157 C.ar    
  30 F30            5.9380     4.8238     2.3768 F       
  31 F31            5.7974    -2.6809    -1.6907 F       
  32 C32            2.9284    -4.0114    -5.4037 C.2     
  33 C33            3.9365    -4.3200    -6.3377 C.2     
  34 N34            3.3597    -4.7118    -7.4428 N.2     
  35 N35            1.9723    -4.6693    -7.2598 N.pl3   
  36 C36            1.7257    -4.2436    -6.0045 C.2     
  37 C37            0.9627    -5.0298    -8.2584 C.3     
  38 H38           -0.9601     1.9070    -0.0640 H       
  39 H39           -0.9289    -0.5512    -0.0716 H       
  40 H40            5.7018    -0.6551    -0.0161 H       
  41 H41            4.5097    -2.5258     0.3829 H       
  42 H42            2.7383    -2.4931     0.5544 H       
  43 H43            5.2931    -3.5349    -4.1316 H       
  44 H44            1.0449    -3.4017    -3.5627 H       
  45 H45            6.3891     4.7591    -2.1149 H       
  46 H46            7.6221     6.8885    -2.0900 H       
  47 H47            8.0596     8.0363     0.0422 H       
  48 H48            7.2661     7.0597     2.1571 H       
  49 H49            5.0007    -4.2454    -6.1698 H       
  50 H50            0.7523    -4.1049    -5.5577 H       
  51 H51            0.7266    -6.0903    -8.1698 H       
  52 H52            0.0604    -4.4415    -8.0917 H       
  53 H53            1.3501    -4.8261    -9.2566 H       
@<TRIPOS>BOND
   1    1    2 ar
   2    1    6 ar
   3    1   38 1
   4    2    3 ar
   5    2   39 1
   6    3    4 ar
   7    3   24 1
   8    4    5 ar
   9    4    7 1
  10    5    6 ar
  11    5   10 1
  12    6   23 1
  13    7    8 1
  14    7   16 1
  15    8    9 2
  16    8   40 1
  17    9   10 1
  18    9   11 1
  19   10   13 2
  20   11   12 am
  21   11   15 2
  22   12   13 1
  23   12   14 1
  24   14   25 ar
  25   14   29 ar
  26   16   17 1
  27   16   41 1
  28   16   42 1
  29   17   18 ar
  30   17   22 ar
  31   18   19 ar
  32   18   31 1
  33   19   20 ar
  34   19   43 1
  35   20   21 ar
  36   20   32 1
  37   21   22 ar
  38   21   44 1
  39   25   26 ar
  40   25   45 1
  41   26   27 ar
  42   26   46 1
  43   27   28 ar
  44   27   47 1
  45   28   29 ar
  46   28   48 1
  47   29   30 1
  48   32   33 1
  49   32   36 2
  50   33   34 2
  51   33   49 1
  52   34   35 1
  53   35   36 1
  54   35   37 1
  55   36   50 1
  56   37   51 1
  57   37   52 1
  58   37   53 1

#	End of record

