#	Name: ASD05730098
#	Creating user name:	WinNT
#	Creation time:	15. 06. 2019 21:02

#	Modifying user name:	WinNT
#	Modification time:	15. 06. 2019 21:02

#	Program:	/corina/corina34_cracker 3.40 0067  02.08.2006

@<TRIPOS>MOLECULE
ASD05730098
  70   75    0    0    0
SMALL
NO_CHARGES


@<TRIPOS>ATOM
   1 N1            -0.0125     1.3947     0.0610 N.3     
   2 C2             0.0053    -0.0044     0.0404 C.ar    
   3 C3            -1.0328    -0.7033    -0.5620 C.ar    
   4 C4            -1.0150    -2.0837    -0.5827 C.ar    
   5 C5             0.0408    -2.7733    -0.0013 C.ar    
   6 C6             1.0788    -2.0746     0.6011 C.ar    
   7 C7             1.0638    -0.6940     0.6172 C.ar    
   8 N8             0.0586    -4.1737    -0.0219 N.pl3   
   9 C9             1.2584    -4.8475    -0.1417 C.ar    
  10 N10            1.2605    -6.1684    -0.0458 N.ar    
  11 C11            2.3945    -6.8511    -0.1562 C.ar    
  12 C12            3.5946    -6.1410    -0.3773 C.ar    
  13 C13            3.5393    -4.7422    -0.4714 C.ar    
  14 N14            2.3672    -4.1471    -0.3543 N.ar    
  15 N15            2.4062    -8.2195    -0.0571 N.am    
  16 C16            3.5593    -8.9066    -0.1685 C.2     
  17 C17            4.8217    -8.2008    -0.3981 C.2     
  18 C18            4.8196    -6.8354    -0.5002 C.2     
  19 C19            1.1518    -8.9405     0.1725 C.3     
  20 C20            0.5145    -9.2963    -1.1722 C.3     
  21 O21            3.5520   -10.1213    -0.0773 O.2     
  22 C22            6.0897    -8.9576    -0.5199 C.ar    
  23 C23            6.3745    -9.6638    -1.6892 C.ar    
  24 C24            7.0059    -8.9623     0.5314 C.ar    
  25 C25            8.1850    -9.6689     0.4123 C.ar    
  26 C26            8.4601   -10.3717    -0.7474 C.ar    
  27 C27            7.5585   -10.3672    -1.7961 C.ar    
  28 C28            1.1750     1.9264     0.7442 C.3     
  29 C29            1.1578     3.4553     0.6757 C.3     
  30 N30           -0.0743     3.9572     1.2999 N.3     
  31 C31           -1.2617     3.4255     0.6167 C.3     
  32 C32           -1.2446     1.8966     0.6852 C.3     
  33 Cl33           5.2435    -9.6588    -3.0061 Cl      
  34 S34            9.9689   -11.2704    -0.8915 S.o     
  35 C35            9.5318   -12.9080    -0.2451 C.3     
  36 O36           10.1595   -11.3516    -2.2973 O.2     
  37 C37           -0.0929     5.4259     1.3215 C.3     
  38 C38           -1.3626     6.1089     1.8337 C.3     
  39 C39           -0.0939     6.1124     2.6889 C.3     
  40 H40           -1.8541    -0.1669    -1.0139 H       
  41 H41           -1.8224    -2.6272    -1.0509 H       
  42 H42            1.8999    -2.6110     1.0533 H       
  43 H43            1.8710    -0.1506     1.0857 H       
  44 H44           -0.7717    -4.6704     0.0479 H       
  45 H45            4.4364    -4.1650    -0.6401 H       
  46 H46            5.7404    -6.2970    -0.6693 H       
  47 H47            1.3548    -9.8540     0.7314 H       
  48 H48            0.4693    -8.3100     0.7424 H       
  49 H49           -0.4188    -9.8328    -1.0014 H       
  50 H50            0.3114    -8.3828    -1.7311 H       
  51 H51            1.1969    -9.9269    -1.7422 H       
  52 H52            6.7931    -8.4137     1.4370 H       
  53 H53            8.8951    -9.6730     1.2260 H       
  54 H54            7.7786   -10.9180    -2.6986 H       
  55 H55            1.1672     1.6090     1.7869 H       
  56 H56            2.0742     1.5506     0.2561 H       
  57 H57            2.0226     3.8528     1.2069 H       
  58 H58            1.1931     3.7730    -0.3664 H       
  59 H59           -2.1609     3.8013     1.1048 H       
  60 H60           -1.2540     3.7429    -0.4261 H       
  61 H61           -2.1094     1.4991     0.1540 H       
  62 H62           -1.2799     1.5789     1.7272 H       
  63 H63            8.7306   -13.3348    -0.8485 H       
  64 H64           10.4045   -13.5597    -0.2864 H       
  65 H65            9.1975   -12.8134     0.7881 H       
  66 H66            0.4504     5.9149     0.5129 H       
  67 H67           -1.6544     7.0474     1.3624 H       
  68 H68           -2.1841     5.4684     2.1546 H       
  69 H69           -0.0808     5.4742     3.5724 H       
  70 H70            0.4489     7.0532     2.7802 H       
@<TRIPOS>BOND
   1    1    2 1
   2    1   28 1
   3    1   32 1
   4    2    3 ar
   5    2    7 ar
   6    3    4 ar
   7    3   40 1
   8    4    5 ar
   9    4   41 1
  10    5    6 ar
  11    5    8 1
  12    6    7 ar
  13    6   42 1
  14    7   43 1
  15    8    9 1
  16    8   44 1
  17    9   10 ar
  18    9   14 ar
  19   10   11 ar
  20   11   12 ar
  21   11   15 1
  22   12   13 ar
  23   12   18 1
  24   13   14 ar
  25   13   45 1
  26   15   16 am
  27   15   19 1
  28   16   17 1
  29   16   21 2
  30   17   18 2
  31   17   22 1
  32   18   46 1
  33   19   20 1
  34   19   47 1
  35   19   48 1
  36   20   49 1
  37   20   50 1
  38   20   51 1
  39   22   24 ar
  40   22   23 ar
  41   23   33 1
  42   23   27 ar
  43   24   25 ar
  44   24   52 1
  45   25   26 ar
  46   25   53 1
  47   26   27 ar
  48   26   34 1
  49   27   54 1
  50   28   29 1
  51   28   55 1
  52   28   56 1
  53   29   30 1
  54   29   57 1
  55   29   58 1
  56   30   31 1
  57   30   37 1
  58   31   32 1
  59   31   59 1
  60   31   60 1
  61   32   61 1
  62   32   62 1
  63   34   35 1
  64   34   36 2
  65   35   63 1
  66   35   64 1
  67   35   65 1
  68   37   38 1
  69   37   39 1
  70   37   66 1
  71   38   39 1
  72   38   67 1
  73   38   68 1
  74   39   69 1
  75   39   70 1

#	End of record

