#	Name: ASD05730117
#	Creating user name:	WinNT
#	Creation time:	15. 06. 2019 21:02

#	Modifying user name:	WinNT
#	Modification time:	15. 06. 2019 21:02

#	Program:	/corina/corina34_cracker 3.40 0067  02.08.2006

@<TRIPOS>MOLECULE
ASD05730117
  80   86    0    0    0
SMALL
NO_CHARGES


@<TRIPOS>ATOM
   1 N1             1.2920     1.3733     0.7254 N.3     
   2 C2             1.0492     0.0068     0.5469 C.ar    
   3 C3            -0.1481    -0.5480     0.9791 C.ar    
   4 C4            -0.3875    -1.8965     0.8030 C.ar    
   5 C5             0.5691    -2.6978     0.1940 C.ar    
   6 C6             1.7669    -2.1430    -0.2379 C.ar    
   7 C7             2.0036    -0.7936    -0.0678 C.ar    
   8 N8             0.3263    -4.0657     0.0158 N.pl3   
   9 C9             0.7938    -4.7084    -1.1133 C.ar    
  10 N10            0.6547    -6.0225    -1.2029 N.ar    
  11 C11            1.0914    -6.6762    -2.2736 C.ar    
  12 C12            1.7055    -5.9421    -3.3118 C.ar    
  13 C13            1.8291    -4.5514    -3.1690 C.ar    
  14 N14            1.3618    -3.9851    -2.0724 N.ar    
  15 N15            0.9509    -8.0371    -2.3726 N.am    
  16 C16            1.3946    -8.6995    -3.4579 C.2     
  17 C17            2.0370    -7.9736    -4.5559 C.2     
  18 C18            2.1815    -6.6040    -4.4657 C.2     
  19 C19            0.3108    -8.7793    -1.2838 C.3     
  20 O20            1.2612    -9.9083    -3.5266 O.2     
  21 C21            2.5254    -8.7009    -5.7493 C.ar    
  22 N22            3.4656    -9.6288    -5.6161 N.ar    
  23 C23            1.3831     1.7099     2.1530 C.3     
  24 C24           -0.9227    -9.5428    -1.8038 C.3     
  25 S25            4.0719   -10.9616    -9.3013 S.o2    
  26 C26            5.4406   -10.0552    -9.9412 C.ar    
  27 O27            3.0626   -10.9234   -10.3009 O.2     
  28 O28            4.6016   -12.1717    -8.7774 O.2     
  29 C29            6.7253   -10.2849    -9.4730 C.ar    
  30 C30            7.7743    -9.5549    -9.9991 C.ar    
  31 N31            7.5639    -8.6494   -10.9343 N.ar    
  32 C32            6.3560    -8.4045   -11.4032 C.ar    
  33 C33            5.2594    -9.0993   -10.9291 C.ar    
  34 C34            0.2606     2.1826     0.0613 C.3     
  35 C35            0.6047     3.6663     0.2119 C.3     
  36 N36            0.6959     4.0029     1.6395 N.3     
  37 C37            1.7272     3.1936     2.3036 C.3     
  38 C38            3.3030    -0.1916    -0.5369 C.3     
  39 O39           -0.6616   -10.9456    -1.6295 O.3     
  40 C40            0.2692   -11.0681    -0.5327 C.3     
  41 C41            1.2518    -9.8910    -0.7592 C.3     
  42 C42            1.9902    -8.4098    -7.0043 C.ar    
  43 C43            2.4566    -9.0982    -8.1096 C.ar    
  44 C44            3.4442   -10.0567    -7.9258 C.ar    
  45 C45            3.9265   -10.2985    -6.6533 C.ar    
  46 C46            0.9187    -7.3607    -7.1535 C.3     
  47 H47           -0.8919     0.0751     1.4534 H       
  48 H48           -1.3188    -2.3281     1.1391 H       
  49 H49            2.5111    -2.7663    -0.7112 H       
  50 H50           -0.1702    -4.5615     0.6855 H       
  51 H51            2.2933    -3.9568    -3.9418 H       
  52 H52            2.6521    -6.0478    -5.2630 H       
  53 H53            0.0286    -8.1032    -0.4767 H       
  54 H54            0.4272     1.5075     2.6361 H       
  55 H55            2.1618     1.1068     2.6199 H       
  56 H56           -1.8047    -9.2560    -1.2312 H       
  57 H57           -1.0765    -9.3229    -2.8602 H       
  58 H58            6.9039   -11.0246    -8.7067 H       
  59 H59            8.7780    -9.7279    -9.6397 H       
  60 H60            6.2226    -7.6550   -12.1692 H       
  61 H61            4.2726    -8.8944   -11.3173 H       
  62 H62            0.2210     1.9241    -0.9969 H       
  63 H63           -0.7080     1.9855     0.5206 H       
  64 H64            1.5606     3.8688    -0.2712 H       
  65 H65           -0.1740     4.2694    -0.2550 H       
  66 H66            0.8709     4.9882     1.7682 H       
  67 H67            1.7668     3.4521     3.3618 H       
  68 H68            2.6958     3.3907     1.8443 H       
  69 H69            3.2219     0.0712    -1.5917 H       
  70 H70            3.5194     0.7043     0.0451 H       
  71 H71            4.1076    -0.9147    -0.4035 H       
  72 H72           -0.2459   -10.9598     0.4218 H       
  73 H73            0.7951   -12.0216    -0.5802 H       
  74 H74            2.0027   -10.1493    -1.5059 H       
  75 H75            1.7230    -9.5919     0.1771 H       
  76 H76            2.0611    -8.8949    -9.0938 H       
  77 H77            4.6947   -11.0434    -6.5076 H       
  78 H78            1.3817    -6.3772    -7.2331 H       
  79 H79            0.3359    -7.5619    -8.0524 H       
  80 H80            0.2633    -7.3843    -6.2828 H       
@<TRIPOS>BOND
   1    1    2 1
   2    1   23 1
   3    1   34 1
   4    2    3 ar
   5    2    7 ar
   6    3    4 ar
   7    3   47 1
   8    4    5 ar
   9    4   48 1
  10    5    6 ar
  11    5    8 1
  12    6    7 ar
  13    6   49 1
  14    7   38 1
  15    8    9 1
  16    8   50 1
  17    9   10 ar
  18    9   14 ar
  19   10   11 ar
  20   11   12 ar
  21   11   15 1
  22   12   13 ar
  23   12   18 1
  24   13   14 ar
  25   13   51 1
  26   15   16 am
  27   15   19 1
  28   16   17 1
  29   16   20 2
  30   17   18 2
  31   17   21 1
  32   18   52 1
  33   19   24 1
  34   19   41 1
  35   19   53 1
  36   21   42 ar
  37   21   22 ar
  38   22   45 ar
  39   23   37 1
  40   23   54 1
  41   23   55 1
  42   24   39 1
  43   24   56 1
  44   24   57 1
  45   25   26 1
  46   25   27 2
  47   25   28 2
  48   25   44 1
  49   26   29 ar
  50   26   33 ar
  51   29   30 ar
  52   29   58 1
  53   30   31 ar
  54   30   59 1
  55   31   32 ar
  56   32   33 ar
  57   32   60 1
  58   33   61 1
  59   34   35 1
  60   34   62 1
  61   34   63 1
  62   35   36 1
  63   35   64 1
  64   35   65 1
  65   36   37 1
  66   36   66 1
  67   37   67 1
  68   37   68 1
  69   38   69 1
  70   38   70 1
  71   38   71 1
  72   39   40 1
  73   40   41 1
  74   40   72 1
  75   40   73 1
  76   41   74 1
  77   41   75 1
  78   42   43 ar
  79   42   46 1
  80   43   44 ar
  81   43   76 1
  82   44   45 ar
  83   45   77 1
  84   46   78 1
  85   46   79 1
  86   46   80 1

#	End of record

