#	Name: ASD00069220
#	Creating user name:	WinNT
#	Creation time:	15. 06. 2019 18:29

#	Modifying user name:	WinNT
#	Modification time:	15. 06. 2019 18:29

#	Program:	/corina/corina34_cracker 3.40 0067  02.08.2006

@<TRIPOS>MOLECULE
ASD00069220
  98  104    0    0    0
SMALL
NO_CHARGES


@<TRIPOS>ATOM
   1 N1            -0.1896     0.8601    -0.1444 N.3     
   2 C2            -0.0825    -0.6032    -0.0838 C.3     
   3 C3             0.6256    -1.1166    -1.3396 C.3     
   4 C4             2.0188    -0.4874    -1.4275 C.3     
   5 C5             1.8816     1.0376    -1.4403 C.3     
   6 C6             1.1371     1.4885    -0.1815 C.3     
   7 C7             0.7545    -2.6163    -1.2670 C.2     
   8 O8             0.3227    -3.2162    -0.3054 O.2     
   9 N9             1.3497    -3.2910    -2.2705 N.am    
  10 C10            0.9800     3.0103    -0.1999 C.3     
  11 C11           -2.7364     2.5718     1.6932 C.ar    
  12 N12           -2.0123     2.1019     0.6881 N.ar    
  13 C13           -0.9405     1.3473     0.9137 C.ar    
  14 C14           -0.5828     1.0527     2.2282 C.ar    
  15 C15           -1.3682     1.5644     3.2587 C.ar    
  16 N16           -2.4287     2.3138     2.9543 N.ar    
  17 N17           -3.8413     3.3583     1.4171 N.pl3   
  18 C18           -4.6557     3.8881     2.5136 C.3     
  19 C19           -0.0133     0.5116     6.4189 C.2     
  20 N20            0.0035     0.5455     5.1058 N.2     
  21 C21           -1.0301     1.2800     4.6738 C.2     
  22 C22           -1.7229     1.7240     5.7786 C.2     
  23 N23           -1.0815     1.2398     6.8646 N.pl3   
  24 C24            0.9566    -0.1999     7.2718 C.2     
  25 N25            1.9682    -0.8909     6.7100 N.am    
  26 O26            0.8437    -0.1631     8.4822 O.2     
  27 C27            2.9395    -1.4928     7.5196 C.ar    
  28 C28            4.2257    -1.7074     7.0260 C.ar    
  29 C29            5.1840    -2.3047     7.8341 C.ar    
  30 C30            4.8601    -2.6847     9.1252 C.ar    
  31 C31            3.5841    -2.4711     9.6131 C.ar    
  32 C32            2.6262    -1.8718     8.8168 C.ar    
  33 C33            7.5333    -1.6079     3.7173 C.3     
  34 N34            8.1968    -1.9390     2.4411 N.3     
  35 C35            7.2841    -1.5883     1.3315 C.3     
  36 C36            6.3457    -0.5017     1.9163 C.3     
  37 C37            6.1682    -0.9944     3.3695 C.3     
  38 C38            5.0710    -2.0486     3.4386 C.3     
  39 C39            4.8822    -2.4901     4.8931 C.3     
  40 N40            4.5500    -1.3221     5.7189 N.3     
  41 C41            5.6401    -0.3379     5.7155 C.3     
  42 C42            5.8553     0.1786     4.2895 C.3     
  43 F43            6.4315    -2.5153     7.3604 F       
  44 C44            1.4750    -4.7489    -2.1999 C.3     
  45 C45            1.5821    -5.3207    -3.6150 C.3     
  46 C46            1.7130    -6.8433    -3.5412 C.3     
  47 C47            2.9684    -7.2094    -2.7468 C.3     
  48 C48            2.8613    -6.6375    -1.3318 C.3     
  49 C49            2.7304    -5.1149    -1.4056 C.3     
  50 H50            0.4901    -0.8893     0.7985 H       
  51 H51           -1.0802    -1.0383    -0.0259 H       
  52 H52            0.0464    -0.8429    -2.2215 H       
  53 H53            2.6113    -0.7926    -0.5650 H       
  54 H54            2.5101    -0.8167    -2.3430 H       
  55 H55            2.8722     1.4919    -1.4596 H       
  56 H56            1.3222     1.3452    -2.3238 H       
  57 H57            1.7040     1.1927     0.7012 H       
  58 H58            1.6951    -2.8112    -3.0396 H       
  59 H59            0.4506     3.3317     0.6971 H       
  60 H60            1.9647     3.4769    -0.2274 H       
  61 H61            0.4128     3.3064    -1.0823 H       
  62 H62            0.2820     0.4423     2.4425 H       
  63 H63           -4.0763     3.5587     0.4976 H       
  64 H64           -5.4751     4.4792     2.1047 H       
  65 H65           -5.0602     3.0616     3.0979 H       
  66 H66           -4.0378     4.5175     3.1539 H       
  67 H67           -2.6092     2.3410     5.7769 H       
  68 H68           -1.3329     1.3821     7.7906 H       
  69 H69            2.0235    -0.9713     5.7450 H       
  70 H70            5.6060    -3.1496     9.7529 H       
  71 H71            3.3363    -2.7697    10.6210 H       
  72 H72            1.6320    -1.7024     9.2033 H       
  73 H73            7.3938    -2.5126     4.3090 H       
  74 H74            8.1339    -0.8870     4.2720 H       
  75 H75            9.0761    -1.4519     2.3537 H       
  76 H76            7.8479    -1.1888     0.4886 H       
  77 H77            6.7081    -2.4612     1.0240 H       
  78 H78            6.8207     0.4791     1.8916 H       
  79 H79            5.3914    -0.4852     1.3900 H       
  80 H80            4.1384    -1.6281     3.0622 H       
  81 H81            5.3539    -2.9084     2.8313 H       
  82 H82            4.0725    -3.2176     4.9500 H       
  83 H83            5.8041    -2.9429     5.2581 H       
  84 H84            5.3797     0.4952     6.3684 H       
  85 H85            6.5557    -0.8083     6.0738 H       
  86 H86            6.6886     0.8812     4.2791 H       
  87 H87            4.9515     0.6806     3.9442 H       
  88 H88            0.5977    -5.1654    -1.7051 H       
  89 H89            0.6878    -5.0599    -4.1809 H       
  90 H90            2.4595    -4.9042    -4.1097 H       
  91 H91            0.8357    -7.2599    -3.0464 H       
  92 H92            1.7893    -7.2507    -4.5493 H       
  93 H93            3.0616    -8.2941    -2.6943 H       
  94 H94            3.8457    -6.7928    -3.2416 H       
  95 H95            1.9839    -7.0541    -0.8370 H       
  96 H96            3.7556    -6.8983    -0.7659 H       
  97 H97            3.6078    -4.6984    -1.9003 H       
  98 H98            2.6541    -4.7075    -0.3974 H       
@<TRIPOS>BOND
   1    1    2 1
   2    1    6 1
   3    1   13 1
   4    2    3 1
   5    2   50 1
   6    2   51 1
   7    3    4 1
   8    3    7 1
   9    3   52 1
  10    4    5 1
  11    4   53 1
  12    4   54 1
  13    5    6 1
  14    5   55 1
  15    5   56 1
  16    6   10 1
  17    6   57 1
  18    7    8 2
  19    7    9 am
  20    9   44 1
  21    9   58 1
  22   10   59 1
  23   10   60 1
  24   10   61 1
  25   11   12 ar
  26   11   16 ar
  27   11   17 1
  28   12   13 ar
  29   13   14 ar
  30   14   15 ar
  31   14   62 1
  32   15   16 ar
  33   15   21 1
  34   17   18 1
  35   17   63 1
  36   18   64 1
  37   18   65 1
  38   18   66 1
  39   19   20 2
  40   19   23 1
  41   19   24 1
  42   20   21 1
  43   21   22 2
  44   22   23 1
  45   22   67 1
  46   23   68 1
  47   24   25 am
  48   24   26 2
  49   25   27 1
  50   25   69 1
  51   27   28 ar
  52   27   32 ar
  53   28   29 ar
  54   28   40 1
  55   29   30 ar
  56   29   43 1
  57   30   31 ar
  58   30   70 1
  59   31   32 ar
  60   31   71 1
  61   32   72 1
  62   33   34 1
  63   33   37 1
  64   33   73 1
  65   33   74 1
  66   34   35 1
  67   34   75 1
  68   35   36 1
  69   35   76 1
  70   35   77 1
  71   36   37 1
  72   36   78 1
  73   36   79 1
  74   37   38 1
  75   37   42 1
  76   38   39 1
  77   38   80 1
  78   38   81 1
  79   39   40 1
  80   39   82 1
  81   39   83 1
  82   40   41 1
  83   41   42 1
  84   41   84 1
  85   41   85 1
  86   42   86 1
  87   42   87 1
  88   44   45 1
  89   44   49 1
  90   44   88 1
  91   45   46 1
  92   45   89 1
  93   45   90 1
  94   46   47 1
  95   46   91 1
  96   46   92 1
  97   47   48 1
  98   47   93 1
  99   47   94 1
 100   48   49 1
 101   48   95 1
 102   48   96 1
 103   49   97 1
 104   49   98 1

#	End of record

