#	Name: ASD02500091
#	Creating user name:	WinNT
#	Creation time:	15. 06. 2019 20:22

#	Modifying user name:	WinNT
#	Modification time:	15. 06. 2019 20:22

#	Program:	/corina/corina34_cracker 3.40 0067  02.08.2006

@<TRIPOS>MOLECULE
ASD02500091
  52   55    0    0    0
SMALL
NO_CHARGES


@<TRIPOS>ATOM
   1 N1             0.3469     1.2441    -0.2040 N.am    
   2 N2            -2.1219    -6.2901    -3.1387 N.3     
   3 C3            -1.9640    -6.9295    -1.8256 C.3     
   4 C4            -0.6322    -6.4934    -1.2057 C.3     
   5 N5            -0.5825    -5.0235    -1.1916 N.am    
   6 C6            -0.8666    -4.3057    -2.4435 C.3     
   7 C7            -2.1892    -4.8279    -3.0147 C.3     
   8 C8            -0.2849    -4.3522    -0.0615 C.2     
   9 O9            -0.1501    -4.9550     0.9863 O.2     
  10 C10           -0.1229    -2.8893    -0.0953 C.ar    
  11 C11           -0.8168    -2.0823     0.8207 C.ar    
  12 C12           -0.6572    -0.7087     0.7807 C.ar    
  13 C13            0.1870    -0.1368    -0.1636 C.ar    
  14 C14            0.8733    -0.9420    -1.0703 C.ar    
  15 C15            0.7270    -2.2988    -1.0360 C.ar    
  16 S16            1.8647     1.8993    -0.3006 S.o2    
  17 C17            2.7232     1.4458     1.1698 C.ar    
  18 O18            2.5218     1.2336    -1.3703 O.2     
  19 O19            1.6971     3.3094    -0.2486 O.2     
  20 C20            2.2809     1.9159     2.4184 C.ar    
  21 C21            2.9878     1.5375     3.5869 C.ar    
  22 C22            4.1118     0.7033     3.4781 C.ar    
  23 C23            4.5100     0.2674     2.2511 C.ar    
  24 C24            3.8137     0.6343     1.1015 C.ar    
  25 N25            1.2099     2.7101     2.5168 N.ar    
  26 C26            0.7935     3.1516     3.6787 C.ar    
  27 C27            1.4426     2.8176     4.8655 C.ar    
  28 C28            2.5431     2.0094     4.8364 C.ar    
  29 Ar29          -3.7276    -7.0030    -4.0945 Du      
  30 O30           -1.6397    -2.6467     1.7397 O.3     
  31 C31           -2.3120    -1.7622     2.6385 C.3     
  32 H32           -0.4307     1.8233    -0.1796 H       
  33 H33           -2.7843    -6.6291    -1.1737 H       
  34 H34           -1.9720    -8.0129    -1.9453 H       
  35 H35           -0.5616    -6.8719    -0.1860 H       
  36 H36            0.1937    -6.8820    -1.8015 H       
  37 H37           -0.9510    -3.2378    -2.2422 H       
  38 H38           -0.0632    -4.4840    -3.1583 H       
  39 H39           -2.3605    -4.3871    -3.9968 H       
  40 H40           -3.0063    -4.5567    -2.3463 H       
  41 H41           -1.1880    -0.0818     1.4819 H       
  42 H42            1.5273    -0.4906    -1.8016 H       
  43 H43            1.2623    -2.9168    -1.7417 H       
  44 H44            4.6577     0.4095     4.3624 H       
  45 H45            5.3748    -0.3743     2.1683 H       
  46 H46            4.1493     0.2752     0.1398 H       
  47 H47           -0.0756     3.7916     3.7170 H       
  48 H48            1.0757     3.1974     5.8076 H       
  49 H49            3.0582     1.7402     5.7467 H       
  50 H50           -2.9362    -2.3412     3.3191 H       
  51 H51           -1.5761    -1.1981     3.2115 H       
  52 H52           -2.9365    -1.0727     2.0705 H       
@<TRIPOS>BOND
   1    1   13 1
   2    1   16 am
   3    1   32 1
   4    2    3 1
   5    2   29 1
   6    2    7 1
   7    3    4 1
   8    3   33 1
   9    3   34 1
  10    4    5 1
  11    4   35 1
  12    4   36 1
  13    5    6 1
  14    5    8 am
  15    6    7 1
  16    6   37 1
  17    6   38 1
  18    7   39 1
  19    7   40 1
  20    8    9 2
  21    8   10 1
  22   10   11 ar
  23   10   15 ar
  24   11   12 ar
  25   11   30 1
  26   12   13 ar
  27   12   41 1
  28   13   14 ar
  29   14   15 ar
  30   14   42 1
  31   15   43 1
  32   16   17 1
  33   16   18 2
  34   16   19 2
  35   17   20 ar
  36   17   24 ar
  37   20   21 ar
  38   20   25 ar
  39   21   22 ar
  40   21   28 ar
  41   22   23 ar
  42   22   44 1
  43   23   24 ar
  44   23   45 1
  45   24   46 1
  46   25   26 ar
  47   26   27 ar
  48   26   47 1
  49   27   28 ar
  50   27   48 1
  51   28   49 1
  52   30   31 1
  53   31   50 1
  54   31   51 1
  55   31   52 1

#	End of record

