#	Name: ASD03090235
#	Creating user name:	WinNT
#	Creation time:	15. 06. 2019 20:28

#	Modifying user name:	WinNT
#	Modification time:	15. 06. 2019 20:28

#	Program:	/corina/corina34_cracker 3.40 0067  02.08.2006

@<TRIPOS>MOLECULE
ASD03090235
  43   45    0    0    0
SMALL
NO_CHARGES


@<TRIPOS>ATOM
   1 N1             0.4484     1.5207     1.4688 N.ar    
   2 C2             0.4099     0.1987     1.4349 C.ar    
   3 C3             1.5438    -0.5361     1.1229 C.ar    
   4 C4             2.7329     0.1415     0.8429 C.ar    
   5 C5             2.7245     1.5408     0.8907 C.ar    
   6 C6             1.5534     2.1944     1.2101 C.ar    
   7 C7             3.9687    -0.6000     0.5052 C.2     
   8 N8             5.7545    -3.4447    -0.5304 N.pl3   
   9 C9             4.8303    -4.4365    -0.8744 C.ar    
  10 C10            3.6128    -4.0856    -1.4428 C.ar    
  11 C11            2.7017    -5.0668    -1.7822 C.ar    
  12 C12            3.0016    -6.3994    -1.5560 C.ar    
  13 C13            4.2151    -6.7518    -0.9892 C.ar    
  14 C14            5.1311    -5.7745    -0.6532 C.ar    
  15 N15            4.0361    -1.8559     0.1118 N.2     
  16 C16            5.3083    -2.1920    -0.1048 C.2     
  17 N17            6.0741    -1.1549     0.1470 N.2     
  18 N18            5.2265    -0.1066     0.5403 N.pl3   
  19 C19            5.6270     1.2501     0.9213 C.3     
  20 C20            5.7294     2.1224    -0.3316 C.3     
  21 O21            6.1200     3.4458     0.0400 O.3     
  22 F22            2.1089    -7.3575    -1.8882 F       
  23 O23           -0.7523    -0.4456     1.7092 O.3     
  24 C24           -1.8854     0.3661     2.0241 C.3     
  25 C25            4.5386    -8.2031    -0.7442 C.3     
  26 F26            5.8096    -8.3070    -0.1690 F       
  27 F27            3.5880    -8.7529     0.1226 F       
  28 F28            4.5184    -8.8969    -1.9590 F       
  29 H29            1.5083    -1.6152     1.0970 H       
  30 H30            3.6239     2.1007     0.6809 H       
  31 H31            1.5400     3.2736     1.2487 H       
  32 H32            6.7055    -3.6271    -0.5875 H       
  33 H33            3.3783    -3.0462    -1.6191 H       
  34 H34            1.7547    -4.7943    -2.2240 H       
  35 H35            6.0773    -6.0497    -0.2112 H       
  36 H36            4.8836     1.6719     1.5978 H       
  37 H37            6.5952     1.2165     1.4207 H       
  38 H38            6.4728     1.7006    -1.0081 H       
  39 H39            4.7612     2.1560    -0.8311 H       
  40 H40            6.2049     4.0549    -0.7062 H       
  41 H41           -1.6680     0.9666     2.9074 H       
  42 H42           -2.1064     1.0235     1.1832 H       
  43 H43           -2.7463    -0.2726     2.2218 H       
@<TRIPOS>BOND
   1    1    2 ar
   2    1    6 ar
   3    2    3 ar
   4    2   23 1
   5    3    4 ar
   6    3   29 1
   7    4    5 ar
   8    4    7 1
   9    5    6 ar
  10    5   30 1
  11    6   31 1
  12    7   15 2
  13    7   18 1
  14    8    9 1
  15    8   16 1
  16    8   32 1
  17    9   10 ar
  18    9   14 ar
  19   10   11 ar
  20   10   33 1
  21   11   12 ar
  22   11   34 1
  23   12   13 ar
  24   12   22 1
  25   13   14 ar
  26   13   25 1
  27   14   35 1
  28   15   16 1
  29   16   17 2
  30   17   18 1
  31   18   19 1
  32   19   20 1
  33   19   36 1
  34   19   37 1
  35   20   21 1
  36   20   38 1
  37   20   39 1
  38   21   40 1
  39   23   24 1
  40   24   41 1
  41   24   42 1
  42   24   43 1
  43   25   26 1
  44   25   27 1
  45   25   28 1

#	End of record

