#	Name: ASD03180051
#	Creating user name:	WinNT
#	Creation time:	15. 06. 2019 20:33

#	Modifying user name:	WinNT
#	Modification time:	15. 06. 2019 20:33

#	Program:	/corina/corina34_cracker 3.40 0067  02.08.2006

@<TRIPOS>MOLECULE
ASD03180051
  50   52    0    0    0
SMALL
NO_CHARGES


@<TRIPOS>ATOM
   1 C1             1.4024     6.5276     3.5430 C.ar    
   2 C2             1.9967     7.2144     2.5001 C.ar    
   3 C3             2.6382     6.5227     1.4890 C.ar    
   4 C4             2.6874     5.1429     1.5176 C.ar    
   5 C5             2.0915     4.4498     2.5637 C.ar    
   6 C6             1.4479     5.1478     3.5778 C.ar    
   7 N7             2.1390     3.0534     2.5955 N.pl3   
   8 C8             3.3553     2.4043     2.7403 C.2     
   9 C9             3.3863     4.3900     0.4150 C.3     
  10 S10            4.9330     3.1857     2.7201 S.3     
  11 C11            5.7133     1.6244     2.9604 C.2     
  12 C12            4.7566     0.6806     3.0331 C.2     
  13 N13            3.5067     1.1282     2.9173 N.2     
  14 C14            4.1736    -1.7575     3.3169 C.2     
  15 N15            4.7113    -2.9456     3.4906 N.2     
  16 C16            5.0699    -0.7511     3.2331 C.2     
  17 S17            6.6794    -1.4477     3.4034 S.3     
  18 C18            5.9985    -3.0081     3.5586 C.2     
  19 C19            6.7890    -4.2761     3.7541 C.3     
  20 C20            2.6860    -1.5393     3.2141 C.3     
  21 C21            2.3578     3.5922    -0.3892 C.3     
  22 C22            4.0977     5.3813    -0.5081 C.3     
  23 C23            0.8000     4.4001     4.7146 C.3     
  24 C24            1.5060     4.7533     6.0253 C.3     
  25 C25           -0.6757     4.7932     4.8082 C.3     
  26 H26            0.9061     7.0710     4.3333 H       
  27 H27            1.9594     8.2935     2.4751 H       
  28 H28            3.1010     7.0622     0.6758 H       
  29 H29            1.3208     2.5383     2.5163 H       
  30 H30            4.1176     3.7075     0.8480 H       
  31 H31            6.7771     1.4538     3.0359 H       
  32 H32            7.0277    -4.7089     2.7826 H       
  33 H33            7.7121    -4.0501     4.2879 H       
  34 H34            6.1991    -4.9864     4.3333 H       
  35 H35            2.3787    -1.6172     2.1712 H       
  36 H36            2.1664    -2.2949     3.8034 H       
  37 H37            2.4371    -0.5482     3.5932 H       
  38 H38            1.8510     2.8859     0.2684 H       
  39 H39            1.6265     4.2746    -0.8222 H       
  40 H40            2.8633     3.0475    -1.1866 H       
  41 H41            4.8152     5.9646     0.0691 H       
  42 H42            4.6211     4.8354    -1.2931 H       
  43 H43            3.3638     6.0500    -0.9578 H       
  44 H44            0.8798     3.3277     4.5365 H       
  45 H45            1.4954     5.8344     6.1638 H       
  46 H46            0.9885     4.2752     6.8570 H       
  47 H47            2.5371     4.4018     5.9887 H       
  48 H48           -1.1786     4.5416     3.8745 H       
  49 H49           -1.1442     4.2524     5.6305 H       
  50 H50           -0.7554     5.8655     4.9864 H       
@<TRIPOS>BOND
   1    1    2 ar
   2    1    6 ar
   3    1   26 1
   4    2    3 ar
   5    2   27 1
   6    3    4 ar
   7    3   28 1
   8    4    5 ar
   9    4    9 1
  10    5    6 ar
  11    5    7 1
  12    6   23 1
  13    7    8 1
  14    7   29 1
  15    8   10 1
  16    8   13 2
  17    9   21 1
  18    9   22 1
  19    9   30 1
  20   10   11 1
  21   11   12 2
  22   11   31 1
  23   12   13 1
  24   12   16 1
  25   14   16 2
  26   14   20 1
  27   14   15 1
  28   15   18 2
  29   16   17 1
  30   17   18 1
  31   18   19 1
  32   19   32 1
  33   19   33 1
  34   19   34 1
  35   20   35 1
  36   20   36 1
  37   20   37 1
  38   21   38 1
  39   21   39 1
  40   21   40 1
  41   22   41 1
  42   22   42 1
  43   22   43 1
  44   23   24 1
  45   23   25 1
  46   23   44 1
  47   24   45 1
  48   24   46 1
  49   24   47 1
  50   25   48 1
  51   25   49 1
  52   25   50 1

#	End of record

