#	Name: ASD02500275
#	Creating user name:	WinNT
#	Creation time:	15. 06. 2019 20:22

#	Modifying user name:	WinNT
#	Modification time:	15. 06. 2019 20:22

#	Program:	/corina/corina34_cracker 3.40 0067  02.08.2006

@<TRIPOS>MOLECULE
ASD02500275
  63   67    0    0    0
SMALL
NO_CHARGES


@<TRIPOS>ATOM
   1 N1            -4.0399     5.4509     1.1723 N.ar    
   2 C2            -5.2049     6.0506     1.2079 C.ar    
   3 C3            -6.1394     5.7788     2.2050 C.ar    
   4 C4            -5.8509     4.8659     3.1790 C.ar    
   5 C5            -4.5989     4.2234     3.1373 C.ar    
   6 C6            -4.2317     3.2742     4.1043 C.ar    
   7 C7            -3.0111     2.6750     4.0295 C.ar    
   8 C8            -2.1208     2.9917     3.0058 C.ar    
   9 C9            -2.4442     3.9072     2.0520 C.ar    
  10 C10           -3.6949     4.5472     2.0951 C.ar    
  11 S11           -1.2990     4.2895     0.7686 S.o2    
  12 O12           -1.2032     5.7066     0.7253 O.2     
  13 O13           -0.1769     3.4403     0.9661 O.2     
  14 N14           -1.9920     3.8238    -0.6615 N.am    
  15 C15           -2.2015     2.4723    -0.9264 C.ar    
  16 C16           -2.0923     1.9930    -2.2334 C.ar    
  17 C17           -2.2997     0.6544    -2.4966 C.ar    
  18 C18           -2.6191    -0.2194    -1.4524 C.ar    
  19 C19           -2.7271     0.2660    -0.1468 C.ar    
  20 C20           -2.5135     1.6021     0.1117 C.ar    
  21 O21           -1.7819     2.8455    -3.2469 O.3     
  22 C22           -1.6867     2.2865    -4.5586 C.3     
  23 C23           -2.8422    -1.6511    -1.7293 C.2     
  24 O24           -3.4816    -1.9889    -2.7068 O.2     
  25 N25           -2.3373    -2.5847    -0.8987 N.am    
  26 C26           -2.4819    -4.0149    -1.2046 C.3     
  27 C27           -1.0894    -4.6578    -1.2119 C.3     
  28 N28           -0.3839    -4.2638     0.0157 N.am    
  29 C29           -0.2393    -2.8337     0.3216 C.3     
  30 C30           -1.6269    -2.1907     0.3261 C.3     
  31 C31            0.1210    -5.1975     0.8463 C.2     
  32 C32           -0.1178    -6.6318     0.5788 C.ar    
  33 C33            0.0841    -7.1599    -0.7019 C.ar    
  34 C34           -0.1541    -8.5106    -0.8998 C.ar    
  35 C35           -0.5803    -9.2864     0.1665 C.ar    
  36 N36           -0.7618    -8.7588     1.3619 N.ar    
  37 C37           -0.5426    -7.4823     1.5999 C.ar    
  38 O38            0.7728    -4.8602     1.8153 O.2     
  39 F39            0.0266    -9.0648    -2.1185 F       
  40 H40           -5.4468     6.7749     0.4441 H       
  41 H41           -7.0908     6.2898     2.2080 H       
  42 H42           -6.5632     4.6432     3.9596 H       
  43 H43           -4.9130     3.0209     4.9030 H       
  44 H44           -2.7294     1.9449     4.7737 H       
  45 H45           -1.1584     2.5032     2.9686 H       
  46 H46           -2.2520     4.4920    -1.3148 H       
  47 H47           -2.2159     0.2823    -3.5070 H       
  48 H48           -2.9740    -0.4073     0.6608 H       
  49 H49           -2.5929     1.9750     1.1221 H       
  50 H50           -0.9109     1.5209    -4.5718 H       
  51 H51           -2.6423     1.8401    -4.8336 H       
  52 H52           -1.4342     3.0720    -5.2708 H       
  53 H53           -3.1006    -4.4910    -0.4439 H       
  54 H54           -2.9451    -4.1345    -2.1840 H       
  55 H55           -1.1876    -5.7428    -1.2452 H       
  56 H56           -0.5312    -4.3116    -2.0817 H       
  57 H57            0.2239    -2.7141     1.3010 H       
  58 H58            0.3794    -2.3576    -0.4390 H       
  59 H59           -1.5256    -1.1059     0.3573 H       
  60 H60           -2.1833    -2.5339     1.1982 H       
  61 H61            0.4165    -6.5311    -1.5145 H       
  62 H62           -0.7670   -10.3395     0.0165 H       
  63 H63           -0.6980    -7.0891     2.5937 H       
@<TRIPOS>BOND
   1    1    2 ar
   2    1   10 ar
   3    2    3 ar
   4    2   40 1
   5    3    4 ar
   6    3   41 1
   7    4    5 ar
   8    4   42 1
   9    5    6 ar
  10    5   10 ar
  11    6    7 ar
  12    6   43 1
  13    7    8 ar
  14    7   44 1
  15    8    9 ar
  16    8   45 1
  17    9   10 ar
  18    9   11 1
  19   11   12 2
  20   11   13 2
  21   11   14 am
  22   14   15 1
  23   14   46 1
  24   15   16 ar
  25   15   20 ar
  26   16   17 ar
  27   16   21 1
  28   17   18 ar
  29   17   47 1
  30   18   19 ar
  31   18   23 1
  32   19   20 ar
  33   19   48 1
  34   20   49 1
  35   21   22 1
  36   22   50 1
  37   22   51 1
  38   22   52 1
  39   23   24 2
  40   23   25 am
  41   25   26 1
  42   25   30 1
  43   26   27 1
  44   26   53 1
  45   26   54 1
  46   27   28 1
  47   27   55 1
  48   27   56 1
  49   28   29 1
  50   28   31 am
  51   29   30 1
  52   29   57 1
  53   29   58 1
  54   30   59 1
  55   30   60 1
  56   31   32 1
  57   31   38 2
  58   32   33 ar
  59   32   37 ar
  60   33   34 ar
  61   33   61 1
  62   34   35 ar
  63   34   39 1
  64   35   36 ar
  65   35   62 1
  66   36   37 ar
  67   37   63 1

#	End of record

