#	Name: ASD01881953
#	Creating user name:	WinNT
#	Creation time:	15. 06. 2019 19:43

#	Modifying user name:	WinNT
#	Modification time:	15. 06. 2019 19:43

#	Program:	/corina/corina34_cracker 3.40 0067  02.08.2006

@<TRIPOS>MOLECULE
ASD01881953
  58   61    0    0    0
SMALL
NO_CHARGES


@<TRIPOS>ATOM
   1 C1            -0.0161     1.3337     0.0094 C.2     
   2 N2             0.0021    -0.0041     0.0020 N.am    
   3 C3             1.2613    -0.4841    -0.0126 C.2     
   4 C4             2.1640     0.7337    -0.0147 C.3     
   5 N5             1.2200     1.8645     0.0004 N.am    
   6 O6            -1.0354     1.9955     0.0180 O.2     
   7 O7             1.6013    -1.6477    -0.0215 O.2     
   8 C8             1.5609     3.2893     0.0041 C.3     
   9 C9             1.6916     3.7708     1.4261 C.ar    
  10 C10            2.9179     3.7119     2.0635 C.ar    
  11 C11            3.0436     4.1515     3.3656 C.ar    
  12 C12            1.9317     4.6556     4.0386 C.ar    
  13 C13            0.6985     4.7125     3.3911 C.ar    
  14 C14            0.5860     4.2753     2.0870 C.ar    
  15 C15            2.1296     6.5463     9.4228 C.2     
  16 N16            0.8532     6.9185     9.6195 N.am    
  17 C17            0.0906     6.6569     8.3935 C.3     
  18 C18            1.0684     6.0704     7.4058 C.ar    
  19 C19            0.9454     5.6335     6.1100 C.ar    
  20 C20            2.0602     5.1290     5.4378 C.ar    
  21 C21            3.2953     5.0703     6.0844 C.ar    
  22 C22            3.4183     5.5084     7.3833 C.ar    
  23 C23            2.3036     6.0140     8.0586 C.ar    
  24 C24            0.3121     7.4904    10.8550 C.3     
  25 C25            0.4361     9.0146    10.8085 C.3     
  26 C26           -0.1289     9.6119    12.0988 C.3     
  27 O27            1.8124     9.3768    10.6787 O.3     
  28 F28            0.5883     9.1188    13.1941 F       
  29 F29           -0.0155    11.0056    12.0562 F       
  30 F30           -1.4763     9.2573    12.2258 F       
  31 O31            3.0156     6.6401    10.2499 O.2     
  32 C32            3.0460     0.7520     1.2354 C.3     
  33 C33           -1.1986    -0.8435     0.0097 C.3     
  34 C34           -1.6309    -1.1284    -1.4300 C.3     
  35 H35            2.7753     0.7564    -0.9169 H       
  36 H36            2.5060     3.4381    -0.5182 H       
  37 H37            0.7749     3.8522    -0.4994 H       
  38 H38            3.7786     3.3209     1.5412 H       
  39 H39            4.0014     4.1047     3.8624 H       
  40 H40           -0.1663     5.1021     3.9076 H       
  41 H41           -0.3679     4.3233     1.5828 H       
  42 H42           -0.7104     5.9457     8.5952 H       
  43 H43           -0.3229     7.5872     8.0040 H       
  44 H44           -0.0116     5.6802     5.6117 H       
  45 H45            4.1573     4.6796     5.5640 H       
  46 H46            4.3757     5.4612     7.8808 H       
  47 H47           -0.7376     7.2141    10.9540 H       
  48 H48            0.8710     7.1062    11.7083 H       
  49 H49           -0.1227     9.3988     9.9551 H       
  50 H50            2.3708     9.0671    11.4049 H       
  51 H51            3.6824    -0.1329     1.2441 H       
  52 H52            3.6682     1.6470     1.2280 H       
  53 H53            2.4158     0.7550     2.1247 H       
  54 H54           -0.9814    -1.7836     0.5167 H       
  55 H55           -2.0011    -0.3248     0.5342 H       
  56 H56           -2.5242    -1.7530    -1.4242 H       
  57 H57           -1.8481    -0.1883    -1.9370 H       
  58 H58           -0.8283    -1.6471    -1.9544 H       
@<TRIPOS>BOND
   1    1    2 am
   2    1    5 am
   3    1    6 2
   4    2    3 am
   5    2   33 1
   6    3    4 1
   7    3    7 2
   8    4    5 1
   9    4   32 1
  10    4   35 1
  11    5    8 1
  12    8    9 1
  13    8   36 1
  14    8   37 1
  15    9   10 ar
  16    9   14 ar
  17   10   11 ar
  18   10   38 1
  19   11   12 ar
  20   11   39 1
  21   12   13 ar
  22   12   20 1
  23   13   14 ar
  24   13   40 1
  25   14   41 1
  26   15   16 am
  27   15   23 1
  28   15   31 2
  29   16   17 1
  30   16   24 1
  31   17   18 1
  32   17   42 1
  33   17   43 1
  34   18   19 ar
  35   18   23 ar
  36   19   20 ar
  37   19   44 1
  38   20   21 ar
  39   21   22 ar
  40   21   45 1
  41   22   23 ar
  42   22   46 1
  43   24   25 1
  44   24   47 1
  45   24   48 1
  46   25   26 1
  47   25   27 1
  48   25   49 1
  49   26   28 1
  50   26   29 1
  51   26   30 1
  52   27   50 1
  53   32   51 1
  54   32   52 1
  55   32   53 1
  56   33   34 1
  57   33   54 1
  58   33   55 1
  59   34   56 1
  60   34   57 1
  61   34   58 1

#	End of record

