#	Name: ASD02198875
#	Creating user name:	WinNT
#	Creation time:	15. 06. 2019 20:20

#	Modifying user name:	WinNT
#	Modification time:	15. 06. 2019 20:20

#	Program:	/corina/corina34_cracker 3.40 0067  02.08.2006

@<TRIPOS>MOLECULE
ASD02198875
  53   57    0    0    0
SMALL
NO_CHARGES


@<TRIPOS>ATOM
   1 C1             0.3541     0.3283    -0.0237 C.2     
   2 C2             0.3408    -0.9071     0.5373 C.2     
   3 N3             1.4881    -1.4972     0.9413 N.pl3   
   4 N4             2.6406    -0.9478     0.8268 N.2     
   5 C5             2.7956     0.2482     0.3000 C.2     
   6 C6             1.6052     0.9739    -0.1708 C.2     
   7 C7             1.4138    -2.7717     1.5134 C.ar    
   8 C8             1.9590    -3.0028     2.7758 C.ar    
   9 C9             1.8832    -4.2655     3.3394 C.ar    
  10 C10            1.2653    -5.2975     2.6470 C.ar    
  11 C11            0.7227    -5.0650     1.3892 C.ar    
  12 C12            0.7919    -3.8065     0.8271 C.ar    
  13 C13            4.1390     0.8510     0.1843 C.2     
  14 N14            4.7250     1.3151    -0.9598 N.pl3   
  15 N15            5.9934     1.8030    -0.6218 N.2     
  16 C16            6.1757     1.6459     0.6651 C.2     
  17 C17            5.0349     1.0569     1.2105 C.2     
  18 C18            4.1588     1.3039    -2.2408 C.ar    
  19 C19            4.2755     2.4170    -3.0627 C.ar    
  20 C20            3.7167     2.4035    -4.3259 C.ar    
  21 C21            3.0409     1.2833    -4.7727 C.ar    
  22 C22            2.9225     0.1717    -3.9562 C.ar    
  23 C23            3.4845     0.1775    -2.6936 C.ar    
  24 O24            1.6930     2.0868    -0.6681 O.2     
  25 N25            1.1889    -6.5757     3.2170 N.pl3   
  26 N26            0.9617    -6.8643     4.5688 N.2     
  27 C27            0.9571    -8.1644     4.7181 C.2     
  28 C28            1.1806    -8.7538     3.4699 C.2     
  29 C29            1.3161    -7.7568     2.5555 C.2     
  30 O30            1.5442    -7.9121     1.2263 O.3     
  31 C31            1.5689    -9.2497     0.7242 C.3     
  32 F32            2.5533    -9.9820     1.3964 F       
  33 F33            0.3210    -9.8480     0.9294 F       
  34 Cl34           2.0726    -1.2327    -4.5210 Cl      
  35 O35            2.5640    -1.9908     3.4517 O.3     
  36 C36            3.0999    -2.3003     4.7397 C.3     
  37 H37           -0.5596     0.8018    -0.3514 H       
  38 H38           -0.5983    -1.4254     0.6631 H       
  39 H39            2.3051    -4.4471     4.3169 H       
  40 H40            0.2426    -5.8697     0.8521 H       
  41 H41            0.3691    -3.6282    -0.1506 H       
  42 H42            7.0617     1.9286     1.2143 H       
  43 H43            4.8838     0.8022     2.2490 H       
  44 H44            4.8026     3.2930    -2.7144 H       
  45 H45            3.8075     3.2692    -4.9651 H       
  46 H46            2.6043     1.2755    -5.7604 H       
  47 H47            3.3921    -0.6897    -2.0567 H       
  48 H48            0.8067    -8.6927     5.6480 H       
  49 H49            1.2324    -9.8134     3.2673 H       
  50 H50            1.7930    -9.2333    -0.3424 H       
  51 H51            3.5533    -1.4067     5.1688 H       
  52 H52            2.2997    -2.6506     5.3916 H       
  53 H53            3.8556    -3.0796     4.6411 H       
@<TRIPOS>BOND
   1    1    2 2
   2    1    6 1
   3    1   37 1
   4    2    3 1
   5    2   38 1
   6    3    4 1
   7    3    7 1
   8    4    5 2
   9    5    6 1
  10    5   13 1
  11    6   24 2
  12    7    8 ar
  13    7   12 ar
  14    8    9 ar
  15    8   35 1
  16    9   10 ar
  17    9   39 1
  18   10   11 ar
  19   10   25 1
  20   11   12 ar
  21   11   40 1
  22   12   41 1
  23   13   14 1
  24   13   17 2
  25   14   15 1
  26   14   18 1
  27   15   16 2
  28   16   17 1
  29   16   42 1
  30   17   43 1
  31   18   19 ar
  32   18   23 ar
  33   19   20 ar
  34   19   44 1
  35   20   21 ar
  36   20   45 1
  37   21   22 ar
  38   21   46 1
  39   22   23 ar
  40   22   34 1
  41   23   47 1
  42   25   26 1
  43   25   29 1
  44   26   27 2
  45   27   28 1
  46   27   48 1
  47   28   29 2
  48   28   49 1
  49   29   30 1
  50   30   31 1
  51   31   32 1
  52   31   33 1
  53   31   50 1
  54   35   36 1
  55   36   51 1
  56   36   52 1
  57   36   53 1

#	End of record

