#	Name: ASD03082325
#	Creating user name:	WinNT
#	Creation time:	15. 06. 2019 20:27

#	Modifying user name:	WinNT
#	Modification time:	15. 06. 2019 20:27

#	Program:	/corina/corina34_cracker 3.40 0067  02.08.2006

@<TRIPOS>MOLECULE
ASD03082325
  59   63    0    0    0
SMALL
NO_CHARGES


@<TRIPOS>ATOM
   1 C1            -0.1352     1.1509     0.7294 C.ar    
   2 C2             0.0118     0.0154    -0.0614 C.ar    
   3 C3            -1.0550    -0.4449    -0.8225 C.ar    
   4 C4            -2.2634     0.2180    -0.7971 C.ar    
   5 C5            -2.4179     1.3559    -0.0041 C.ar    
   6 C6            -1.3456     1.8217     0.7571 C.ar    
   7 O7             0.9023     1.6182     1.4768 O.3     
   8 C8             1.9854     0.7121     1.7123 C.3     
   9 C9             2.3479     0.0403     0.3810 C.3     
  10 O10            1.1936    -0.6585    -0.0973 O.3     
  11 C11           -3.7135     2.0683     0.0261 C.2     
  12 N12           -3.9037     3.3166     0.4055 N.2     
  13 C13           -5.1979     3.6253     0.3036 C.2     
  14 N14           -5.8540     2.5793    -0.1423 N.2     
  15 N15           -4.9115     1.5565    -0.3360 N.pl3   
  16 C16           -5.1752     0.2009    -0.8249 C.3     
  17 C17           -5.1649     0.1996    -2.3549 C.3     
  18 C18           -5.4362    -1.1949    -2.8578 C.2     
  19 N19           -5.4750    -1.4377    -4.1830 N.am    
  20 C20           -5.7387    -2.7933    -4.6719 C.3     
  21 C21           -5.2533    -0.3460    -5.1345 C.3     
  22 O22           -5.6197    -2.0986    -2.0701 O.2     
  23 N23           -5.7634     4.8620     0.6207 N.pl3   
  24 C24           -7.1873     5.1884     0.5054 C.3     
  25 C25           -5.0557     5.9663     1.0998 C.ar    
  26 C26           -5.8900     7.0504     1.3231 C.ar    
  27 C27           -7.3041     6.6505     0.9665 C.3     
  28 C28           -3.6900     6.0965     1.3625 C.ar    
  29 C29           -3.1841     7.2874     1.8373 C.ar    
  30 C30           -4.0253     8.3630     2.0572 C.ar    
  31 C31           -5.3780     8.2421     1.7994 C.ar    
  32 C32           -1.7093     7.4179     2.1183 C.3     
  33 F33           -1.0532     7.8670     0.9671 F       
  34 F34           -1.5116     8.3354     3.1557 F       
  35 F35           -1.1939     6.1723     2.4928 F       
  36 H36           -0.9372    -1.3252    -1.4369 H       
  37 H37           -3.0902    -0.1431    -1.3908 H       
  38 H38           -1.4615     2.7019     1.3720 H       
  39 H39            2.8468     1.2602     2.0940 H       
  40 H40            1.6809    -0.0448     2.4351 H       
  41 H41            2.6455     0.7979    -0.3440 H       
  42 H42            3.1659    -0.6633     0.5351 H       
  43 H43           -4.4038    -0.4750    -0.4558 H       
  44 H44           -6.1501    -0.1309    -0.4678 H       
  45 H45           -5.9363     0.8754    -2.7240 H       
  46 H46           -4.1900     0.5313    -2.7120 H       
  47 H47           -6.8124    -2.9308    -4.8001 H       
  48 H48           -5.2370    -2.9385    -5.6286 H       
  49 H49           -5.3630    -3.5191    -3.9508 H       
  50 H50           -4.2632     0.0806    -4.9738 H       
  51 H51           -5.3222    -0.7312    -6.1518 H       
  52 H52           -6.0096     0.4247    -4.9858 H       
  53 H53           -7.5150     5.0911    -0.5296 H       
  54 H54           -7.7776     4.5396     1.1524 H       
  55 H55           -7.6836     7.2754     0.1582 H       
  56 H56           -7.9515     6.7227     1.8404 H       
  57 H57           -3.0277     5.2603     1.1933 H       
  58 H58           -3.6264     9.2949     2.4299 H       
  59 H59           -6.0362     9.0812     1.9703 H       
@<TRIPOS>BOND
   1    1    2 ar
   2    1    7 1
   3    1    6 ar
   4    2    3 ar
   5    2   10 1
   6    3    4 ar
   7    3   36 1
   8    4    5 ar
   9    4   37 1
  10    5    6 ar
  11    5   11 1
  12    6   38 1
  13    7    8 1
  14    8    9 1
  15    8   39 1
  16    8   40 1
  17    9   10 1
  18    9   41 1
  19    9   42 1
  20   11   12 2
  21   11   15 1
  22   12   13 1
  23   13   14 2
  24   13   23 1
  25   14   15 1
  26   15   16 1
  27   16   17 1
  28   16   43 1
  29   16   44 1
  30   17   18 1
  31   17   45 1
  32   17   46 1
  33   18   19 am
  34   18   22 2
  35   19   20 1
  36   19   21 1
  37   20   47 1
  38   20   48 1
  39   20   49 1
  40   21   50 1
  41   21   51 1
  42   21   52 1
  43   23   24 1
  44   23   25 1
  45   24   27 1
  46   24   53 1
  47   24   54 1
  48   25   26 ar
  49   25   28 ar
  50   26   27 1
  51   26   31 ar
  52   27   55 1
  53   27   56 1
  54   28   29 ar
  55   28   57 1
  56   29   30 ar
  57   29   32 1
  58   30   31 ar
  59   30   58 1
  60   31   59 1
  61   32   33 1
  62   32   34 1
  63   32   35 1

#	End of record

