#	Name: ASD00311269
#	Creating user name:	WinNT
#	Creation time:	15. 06. 2019 18:34

#	Modifying user name:	WinNT
#	Modification time:	15. 06. 2019 18:34

#	Program:	/corina/corina34_cracker 3.40 0067  02.08.2006

@<TRIPOS>MOLECULE
ASD00311269
  43   47    0    0    0
SMALL
NO_CHARGES


@<TRIPOS>ATOM
   1 C1            -0.0167     1.3780     0.0096 C.2     
   2 C2             0.0021    -0.0041     0.0020 C.2     
   3 C3             1.2588    -0.6766    -0.0136 C.2     
   4 C4             2.4315     0.0675    -0.0208 C.2     
   5 C5             2.3575     1.4754    -0.0126 C.2     
   6 N6             1.1649     2.0906     0.0022 N.am    
   7 C7            -1.3431    -0.5749     0.0123 C.2     
   8 C8            -2.3224     0.3258     0.0268 C.2     
   9 S9            -1.6794     1.9561     0.0358 S.3     
  10 O10            3.3823     2.1374    -0.0184 O.2     
  11 C11            3.7476    -0.6118    -0.0366 C.ar    
  12 C12            4.5934    -0.4744    -1.1371 C.ar    
  13 C13            5.8182    -1.1096    -1.1459 C.ar    
  14 C14            6.2078    -1.8820    -0.0662 C.ar    
  15 C15            5.3733    -2.0221     1.0283 C.ar    
  16 C16            4.1486    -1.3868     1.0515 C.ar    
  17 C17           -1.2001    -2.8073     1.0907 C.ar    
  18 C18           -1.5956    -2.0351     0.0065 C.ar    
  19 C19           -2.2331    -2.6273    -1.0944 C.ar    
  20 C20           -2.4767    -3.9637    -1.1245 C.ar    
  21 C21           -2.0902    -4.7758    -0.0434 C.ar    
  22 C22           -2.3333    -6.1599    -0.0533 C.ar    
  23 C23           -1.9478    -6.9201     1.0081 C.ar    
  24 C24           -1.3136    -6.3470     2.1088 C.ar    
  25 C25           -1.0615    -5.0101     2.1538 C.ar    
  26 C26           -1.4449    -4.1932     1.0766 C.ar    
  27 O27           -0.5784    -2.2316     2.1521 O.3     
  28 O28            1.3088    -2.0290    -0.0209 O.3     
  29 H29            1.1328     3.0601     0.0073 H       
  30 H30           -3.3749     0.0840     0.0359 H       
  31 H31            4.2901     0.1278    -1.9808 H       
  32 H32            6.4740    -1.0040    -1.9974 H       
  33 H33            7.1671    -2.3779    -0.0780 H       
  34 H34            5.6827    -2.6267     1.8680 H       
  35 H35            3.5001    -1.4930     1.9085 H       
  36 H36           -2.5345    -2.0123    -1.9294 H       
  37 H37           -2.9685    -4.4030    -1.9798 H       
  38 H38           -2.8242    -6.6183    -0.8990 H       
  39 H39           -2.1367    -7.9834     0.9972 H       
  40 H40           -1.0182    -6.9725     2.9381 H       
  41 H41           -0.5688    -4.5794     3.0130 H       
  42 H42           -1.1818    -1.9269     2.8436 H       
  43 H43            2.2061    -2.3894    -0.0315 H       
@<TRIPOS>BOND
   1    1    2 2
   2    1    6 1
   3    1    9 1
   4    2    3 1
   5    2    7 1
   6    3    4 2
   7    3   28 1
   8    4    5 1
   9    4   11 1
  10    5    6 am
  11    5   10 2
  12    6   29 1
  13    7    8 2
  14    7   18 1
  15    8    9 1
  16    8   30 1
  17   11   12 ar
  18   11   16 ar
  19   12   13 ar
  20   12   31 1
  21   13   14 ar
  22   13   32 1
  23   14   15 ar
  24   14   33 1
  25   15   16 ar
  26   15   34 1
  27   16   35 1
  28   17   18 ar
  29   17   26 ar
  30   17   27 1
  31   18   19 ar
  32   19   20 ar
  33   19   36 1
  34   20   21 ar
  35   20   37 1
  36   21   22 ar
  37   21   26 ar
  38   22   23 ar
  39   22   38 1
  40   23   24 ar
  41   23   39 1
  42   24   25 ar
  43   24   40 1
  44   25   26 ar
  45   25   41 1
  46   27   42 1
  47   28   43 1

#	End of record

