#	Name: ASD01912335
#	Creating user name:	WinNT
#	Creation time:	15. 06. 2019 19:59

#	Modifying user name:	WinNT
#	Modification time:	15. 06. 2019 19:59

#	Program:	/corina/corina34_cracker 3.40 0067  02.08.2006

@<TRIPOS>MOLECULE
ASD01912335
  52   55    0    0    0
SMALL
NO_CHARGES


@<TRIPOS>ATOM
   1 N1             0.1174     1.3919    -0.4523 N.pl3   
   2 C2             0.2150     0.0625    -0.6914 C.2     
   3 C3             1.2905    -0.4484    -0.0259 C.2     
   4 C4             1.9129     0.6794     0.6915 C.ar    
   5 C5             3.0203     0.8002     1.5276 C.ar    
   6 C6             3.3471     2.0353     2.0544 C.ar    
   7 C7             2.5740     3.1523     1.7510 C.ar    
   8 C8             1.4775     3.0421     0.9252 C.ar    
   9 C9             1.1339     1.8064     0.3861 C.ar    
  10 C10            1.7397    -1.8470    -0.0237 C.2     
  11 O11            2.9250    -2.1054    -0.1169 O.2     
  12 N12            0.8388    -2.8439     0.0815 N.am    
  13 C13            1.2637    -4.2446    -0.0383 C.3     
  14 C14            0.8637    -4.9929     1.2396 C.3     
  15 C15           -0.5899    -4.6935     1.5339 C.2     
  16 C16           -1.0263    -3.2466     1.6043 C.3     
  17 C17           -0.5779    -2.5423     0.3233 C.3     
  18 C18           -1.4644    -5.6801     1.7258 C.2     
  19 C19           -2.8362    -5.3771     2.0033 C.1     
  20 C20           -3.9609    -5.1286     2.2307 C.1     
  21 C21           -5.3326    -4.8255     2.5082 C.ar    
  22 C22           -6.2462    -5.8645     2.7088 C.ar    
  23 C23           -7.5670    -5.5546     2.9757 C.ar    
  24 C24           -7.9361    -4.2171     3.0343 C.ar    
  25 C25           -6.9813    -3.2385     2.8259 C.ar    
  26 N26           -5.7276    -3.5575     2.5785 N.ar    
  27 C27           -7.3798    -1.7865     2.8890 C.3     
  28 O28            4.4267     2.1597     2.8716 O.3     
  29 C29            4.7077     3.4648     3.3813 C.3     
  30 H30           -0.5671     1.9718    -0.8210 H       
  31 H31           -0.4578    -0.5076    -1.3149 H       
  32 H32            3.6199    -0.0666     1.7632 H       
  33 H33            2.8362     4.1138     2.1672 H       
  34 H34            0.8840     3.9149     0.6964 H       
  35 H35            0.7747    -4.7025    -0.8981 H       
  36 H36            2.3455    -4.2888    -0.1641 H       
  37 H37            0.9952    -6.0650     1.0935 H       
  38 H38            1.4832    -4.6566     2.0710 H       
  39 H39           -2.1115    -3.1945     1.6929 H       
  40 H40           -0.5637    -2.7653     2.4660 H       
  41 H41           -0.7084    -1.4660     0.4355 H       
  42 H42           -1.1758    -2.8995    -0.5152 H       
  43 H43           -1.1388    -6.7085     1.6722 H       
  44 H44           -5.9250    -6.8943     2.6558 H       
  45 H45           -8.2958    -6.3356     3.1348 H       
  46 H46           -8.9603    -3.9434     3.2404 H       
  47 H47           -7.2694    -1.4236     3.9109 H       
  48 H48           -6.7396    -1.2049     2.2257 H       
  49 H49           -8.4185    -1.6809     2.5761 H       
  50 H50            4.8885     4.1478     2.5512 H       
  51 H51            3.8570     3.8183     3.9639 H       
  52 H52            5.5919     3.4239     4.0173 H       
@<TRIPOS>BOND
   1    1    2 1
   2    1    9 1
   3    1   30 1
   4    2    3 2
   5    2   31 1
   6    3    4 1
   7    3   10 1
   8    4    5 ar
   9    4    9 ar
  10    5    6 ar
  11    5   32 1
  12    6    7 ar
  13    6   28 1
  14    7    8 ar
  15    7   33 1
  16    8    9 ar
  17    8   34 1
  18   10   11 2
  19   10   12 am
  20   12   13 1
  21   12   17 1
  22   13   14 1
  23   13   35 1
  24   13   36 1
  25   14   15 1
  26   14   37 1
  27   14   38 1
  28   15   16 1
  29   15   18 2
  30   16   17 1
  31   16   39 1
  32   16   40 1
  33   17   41 1
  34   17   42 1
  35   18   19 1
  36   18   43 1
  37   19   20 3
  38   20   21 1
  39   21   22 ar
  40   21   26 ar
  41   22   23 ar
  42   22   44 1
  43   23   24 ar
  44   23   45 1
  45   24   25 ar
  46   24   46 1
  47   25   26 ar
  48   25   27 1
  49   27   47 1
  50   27   48 1
  51   27   49 1
  52   28   29 1
  53   29   50 1
  54   29   51 1
  55   29   52 1

#	End of record

