#	Name: ASD01150828
#	Creating user name:	WinNT
#	Creation time:	15. 06. 2019 19:05

#	Modifying user name:	WinNT
#	Modification time:	15. 06. 2019 19:05

#	Program:	/corina/corina34_cracker 3.40 0067  02.08.2006

@<TRIPOS>MOLECULE
ASD01150828
  56   59    0    0    0
SMALL
NO_CHARGES


@<TRIPOS>ATOM
   1 C1             0.1645     0.4155    -0.5401 C.2     
   2 N2             0.3623    -0.8613    -0.2994 N.2     
   3 C3             1.6538    -1.0828    -0.0359 C.2     
   4 C4             2.3162     0.1355    -0.1156 C.2     
   5 N5             1.3430     1.0814    -0.4398 N.pl3   
   6 C6             3.6921     0.3691     0.0900 C.2     
   7 O7             4.4316    -0.5568     0.3699 O.2     
   8 O8             4.1890     1.6195    -0.0236 O.3     
   9 O9            -1.0264     0.9773    -0.8459 O.3     
  10 C10           -2.1572     0.1061    -0.9102 C.3     
  11 C11            1.5439     2.4562    -0.6261 C.ar    
  12 C12            0.9621     3.3679     0.2445 C.ar    
  13 C13            1.1611     4.7220     0.0592 C.ar    
  14 C14            1.9401     5.1705    -0.9942 C.ar    
  15 C15            2.5209     4.2627    -1.8638 C.ar    
  16 C16            2.3296     2.9076    -1.6780 C.ar    
  17 F17            2.1333     6.4955    -1.1740 F       
  18 N18            2.2303    -2.3111     0.2642 N.am    
  19 C19            1.4670    -3.4210     0.3086 C.2     
  20 C20            2.0795    -4.7261     0.6275 C.ar    
  21 C21            1.2905    -5.8792     0.6743 C.ar    
  22 C22            1.8700    -7.0960     0.9732 C.ar    
  23 C23            3.2291    -7.1750     1.2260 C.ar    
  24 C24            4.0156    -6.0354     1.1810 C.ar    
  25 C25            3.4504    -4.8149     0.8781 C.ar    
  26 O26            0.2741    -3.3475     0.0860 O.2     
  27 Cl27           3.9504    -8.7086     1.6017 Cl      
  28 Cl28          -0.4136    -5.7811     0.3580 Cl      
  29 C29            5.6074     1.7649     0.0708 C.3     
  30 C30            6.4593     1.1012    -1.0131 C.3     
  31 C31            6.3017     2.6229    -0.9888 C.3     
  32 C32            6.1655     1.8000     1.4702 C.2     
  33 O33            7.3151     1.4866     1.6702 O.2     
  34 O34            5.3854     2.1794     2.4945 O.3     
  35 C35            5.9896     2.1894     3.8148 C.3     
  36 C36            4.9551     2.6454     4.8456 C.3     
  37 H37           -3.0465     0.6831    -1.1639 H       
  38 H38           -1.9875    -0.6539    -1.6729 H       
  39 H39           -2.3003    -0.3755     0.0571 H       
  40 H40            0.3539     3.0185     1.0657 H       
  41 H41            0.7087     5.4315     0.7362 H       
  42 H42            3.1275     4.6144    -2.6852 H       
  43 H43            2.7866     2.1997    -2.3535 H       
  44 H44            3.1821    -2.3697     0.4418 H       
  45 H45            1.2621    -7.9879     1.0102 H       
  46 H46            5.0750    -6.1041     1.3793 H       
  47 H47            4.0661    -3.9284     0.8387 H       
  48 H48            7.4236     0.6903    -0.7140 H       
  49 H49            5.9378     0.5536    -1.7981 H       
  50 H50            5.6765     3.0764    -1.7580 H       
  51 H51            7.1622     3.2131    -0.6738 H       
  52 H52            6.3334     1.1856     4.0646 H       
  53 H53            6.8364     2.8757     3.8217 H       
  54 H54            5.4086     2.6529     5.8368 H       
  55 H55            4.6113     3.6492     4.5958 H       
  56 H56            4.1083     1.9591     4.8388 H       
@<TRIPOS>BOND
   1    1    2 2
   2    1    5 1
   3    1    9 1
   4    2    3 1
   5    3    4 2
   6    3   18 1
   7    4    5 1
   8    4    6 1
   9    5   11 1
  10    6    7 2
  11    6    8 1
  12    8   29 1
  13    9   10 1
  14   10   37 1
  15   10   38 1
  16   10   39 1
  17   11   12 ar
  18   11   16 ar
  19   12   13 ar
  20   12   40 1
  21   13   14 ar
  22   13   41 1
  23   14   15 ar
  24   14   17 1
  25   15   16 ar
  26   15   42 1
  27   16   43 1
  28   18   19 am
  29   18   44 1
  30   19   20 1
  31   19   26 2
  32   20   21 ar
  33   20   25 ar
  34   21   22 ar
  35   21   28 1
  36   22   23 ar
  37   22   45 1
  38   23   24 ar
  39   23   27 1
  40   24   25 ar
  41   24   46 1
  42   25   47 1
  43   29   30 1
  44   29   31 1
  45   29   32 1
  46   30   31 1
  47   30   48 1
  48   30   49 1
  49   31   50 1
  50   31   51 1
  51   32   33 2
  52   32   34 1
  53   34   35 1
  54   35   36 1
  55   35   52 1
  56   35   53 1
  57   36   54 1
  58   36   55 1
  59   36   56 1

#	End of record

