#	Name: ASD03331847
#	Creating user name:	WinNT
#	Creation time:	15. 06. 2019 20:40

#	Modifying user name:	WinNT
#	Modification time:	15. 06. 2019 20:40

#	Program:	/corina/corina34_cracker 3.40 0067  02.08.2006

@<TRIPOS>MOLECULE
ASD03331847
  49   52    0    0    0
SMALL
NO_CHARGES


@<TRIPOS>ATOM
   1 C1             8.1034     1.5085    -3.4638 C.ar    
   2 C2             8.5669     0.2454    -3.0851 C.ar    
   3 C3             8.0653    -0.3623    -1.9306 C.ar    
   4 C4             7.1169     0.2849    -1.1706 C.ar    
   5 C5             6.6576     1.5417    -1.5508 C.ar    
   6 C6             7.1549     2.1497    -2.6989 C.ar    
   7 N7             5.6961     2.1943    -0.7784 N.am    
   8 C8             5.7108     3.5383    -0.6782 C.2     
   9 N9             4.7216     4.1760    -0.0216 N.am    
  10 O10            6.6166     4.1754    -1.1801 O.2     
  11 C11            4.7915     5.5597     0.1762 C.ar    
  12 C12            3.6929     7.6857     0.3882 C.ar    
  13 C13            3.6281     6.3189     0.1927 C.ar    
  14 C14            6.0216     6.1725     0.3617 C.ar    
  15 C15            6.0861     7.5495     0.5586 C.ar    
  16 C16            4.9137     8.3042     0.5683 C.ar    
  17 C17            7.3982     8.2115     0.7581 C.ar    
  18 C18            7.4731     9.5928     0.9565 C.ar    
  19 C19            8.7190    10.1659     1.1381 C.ar    
  20 N20            9.7952     9.3955     1.1188 N.ar    
  21 C21            9.6947     8.0880     0.9285 C.ar    
  22 N22            8.5220     7.4984     0.7563 N.ar    
  23 C23            9.5530    -0.4248    -3.8783 C.1     
  24 N24           10.8448     7.3180     0.9154 N.3     
  25 C25           12.0416     8.1523     1.1293 C.3     
  26 C26           12.7809     7.5844     2.3591 C.3     
  27 C27           12.2701     6.1212     2.4290 C.3     
  28 C28           10.8000     6.2805     1.9676 C.3     
  29 N29           10.3353    -0.9564    -4.5076 N.1     
  30 H30            8.4920     1.9829    -4.3528 H       
  31 H31            8.4209    -1.3383    -1.6352 H       
  32 H32            6.7289    -0.1840    -0.2784 H       
  33 H33            6.7965     3.1258    -2.9907 H       
  34 H34            5.0170     1.6807    -0.3136 H       
  35 H35            3.9611     3.6759     0.3138 H       
  36 H36            2.7857     8.2714     0.4002 H       
  37 H37            2.6705     5.8398     0.0519 H       
  38 H38            6.9268     5.5835     0.3537 H       
  39 H39            4.9605     9.3724     0.7202 H       
  40 H40            6.5792    10.1988     0.9674 H       
  41 H41            8.8126    11.2306     1.2936 H       
  42 H42           12.6883     8.1045     0.2532 H       
  43 H43           11.7454     9.1841     1.3185 H       
  44 H44           13.8597     7.6091     2.2056 H       
  45 H45           12.5061     8.1320     3.2607 H       
  46 H46           12.8267     5.4803     1.7452 H       
  47 H47           12.3202     5.7384     3.4484 H       
  48 H48           10.1751     6.6091     2.7981 H       
  49 H49           10.4266     5.3415     1.5591 H       
@<TRIPOS>BOND
   1    1    2 ar
   2    1    6 ar
   3    1   30 1
   4    2    3 ar
   5    2   23 1
   6    3    4 ar
   7    3   31 1
   8    4    5 ar
   9    4   32 1
  10    5    6 ar
  11    5    7 1
  12    6   33 1
  13    7    8 am
  14    7   34 1
  15    8    9 am
  16    8   10 2
  17    9   11 1
  18    9   35 1
  19   11   14 ar
  20   11   13 ar
  21   12   13 ar
  22   12   16 ar
  23   12   36 1
  24   13   37 1
  25   14   15 ar
  26   14   38 1
  27   15   16 ar
  28   15   17 1
  29   16   39 1
  30   17   18 ar
  31   17   22 ar
  32   18   19 ar
  33   18   40 1
  34   19   20 ar
  35   19   41 1
  36   20   21 ar
  37   21   22 ar
  38   21   24 1
  39   23   29 3
  40   24   25 1
  41   24   28 1
  42   25   26 1
  43   25   42 1
  44   25   43 1
  45   26   27 1
  46   26   44 1
  47   26   45 1
  48   27   28 1
  49   27   46 1
  50   27   47 1
  51   28   48 1
  52   28   49 1

#	End of record

