#	Name: ASD07030009
#	Creating user name:	WinNT
#	Creation time:	15. 06. 2019 21:08

#	Modifying user name:	WinNT
#	Modification time:	15. 06. 2019 21:08

#	Program:	/corina/corina34_cracker 3.40 0067  02.08.2006

@<TRIPOS>MOLECULE
ASD07030009
  56   60    0    0    0
SMALL
NO_CHARGES


@<TRIPOS>ATOM
   1 C1            -0.0187     1.5258     0.0104 C.3     
   2 C2             0.0021    -0.0041     0.0020 C.3     
   3 N3             1.3595     2.0342     0.0000 N.3     
   4 N4            -1.3761    -0.5125     0.0124 N.3     
   5 C5            -1.3954    -1.9814     0.0047 C.3     
   6 C6            -2.6290    -2.6748     0.5864 C.3     
   7 C7            -2.3959    -2.6699    -0.9257 C.3     
   8 C8             1.3788     3.5031     0.0077 C.3     
   9 C9             2.6233     4.1903     0.5731 C.3     
  10 C10            2.3614     4.2017    -0.9343 C.3     
  11 C11            2.0516     7.8680     2.6935 C.ar    
  12 C12            2.6335     6.7665     3.3414 C.ar    
  13 C13            2.8157     5.5755     2.6444 C.ar    
  14 C14            2.4246     5.4819     1.3236 C.ar    
  15 C15            1.8514     6.5679     0.6848 C.ar    
  16 C16            1.6635     7.7566     1.3614 C.ar    
  17 C17            1.8463     9.1404     3.4258 C.ar    
  18 C18            2.2776    10.3444     2.8710 C.ar    
  19 C19            2.0837    11.5259     3.5573 C.ar    
  20 C20            1.4633    11.5169     4.7937 C.ar    
  21 C21            1.0332    10.3252     5.3491 C.ar    
  22 C22            1.2160     9.1383     4.6692 C.ar    
  23 C23            3.0518     6.8716     4.7597 C.ar    
  24 C24            2.6567     5.9015     5.6795 C.ar    
  25 C25            3.0496     6.0043     6.9984 C.ar    
  26 C26            3.8340     7.0675     7.4083 C.ar    
  27 C27            4.2287     8.0334     6.5002 C.ar    
  28 C28            3.8467     7.9380     5.1775 C.ar    
  29 H29           -0.5459     1.8868    -0.8726 H       
  30 H30           -0.5289     1.8773     0.9072 H       
  31 H31            0.5123    -0.3556    -0.8948 H       
  32 H32            0.5293    -0.3651     0.8851 H       
  33 H33            1.8883     1.6616     0.7744 H       
  34 H34           -1.8899    -0.1483     0.8007 H       
  35 H35           -0.4297    -2.4650     0.1524 H       
  36 H36           -2.4750    -3.6147     1.1163 H       
  37 H37           -3.4263    -2.0410     0.9748 H       
  38 H38           -3.0398    -2.0330    -1.5322 H       
  39 H39           -2.0885    -3.6067    -1.3906 H       
  40 H40            0.4162     3.9852     0.1786 H       
  41 H41            3.4278     3.5525     0.9394 H       
  42 H42            2.9936     3.5713    -1.5597 H       
  43 H43            2.0453     5.1433    -1.3831 H       
  44 H44            3.2629     4.7246     3.1368 H       
  45 H45            1.5492     6.4847    -0.3487 H       
  46 H46            1.2157     8.6001     0.8570 H       
  47 H47            2.7627    10.3526     1.9061 H       
  48 H48            2.4174    12.4592     3.1286 H       
  49 H49            1.3143    12.4438     5.3275 H       
  50 H50            0.5497    10.3242     6.3148 H       
  51 H51            0.8756     8.2090     5.1017 H       
  52 H52            2.0440     5.0712     5.3606 H       
  53 H53            2.7438     5.2535     7.7119 H       
  54 H54            4.1391     7.1439     8.4415 H       
  55 H55            4.8408     8.8614     6.8260 H       
  56 H56            4.1591     8.6903     4.4684 H       
@<TRIPOS>BOND
   1    1    2 1
   2    1    3 1
   3    1   29 1
   4    1   30 1
   5    2    4 1
   6    2   31 1
   7    2   32 1
   8    3    8 1
   9    3   33 1
  10    4    5 1
  11    4   34 1
  12    5    6 1
  13    5    7 1
  14    5   35 1
  15    6    7 1
  16    6   36 1
  17    6   37 1
  18    7   38 1
  19    7   39 1
  20    8    9 1
  21    8   10 1
  22    8   40 1
  23    9   10 1
  24    9   14 1
  25    9   41 1
  26   10   42 1
  27   10   43 1
  28   11   12 ar
  29   11   16 ar
  30   11   17 1
  31   12   13 ar
  32   12   23 1
  33   13   14 ar
  34   13   44 1
  35   14   15 ar
  36   15   16 ar
  37   15   45 1
  38   16   46 1
  39   17   18 ar
  40   17   22 ar
  41   18   19 ar
  42   18   47 1
  43   19   20 ar
  44   19   48 1
  45   20   21 ar
  46   20   49 1
  47   21   22 ar
  48   21   50 1
  49   22   51 1
  50   23   24 ar
  51   23   28 ar
  52   24   25 ar
  53   24   52 1
  54   25   26 ar
  55   25   53 1
  56   26   27 ar
  57   26   54 1
  58   27   28 ar
  59   27   55 1
  60   28   56 1

#	End of record

