#	Name: ASD01813228
#	Creating user name:	WinNT
#	Creation time:	15. 06. 2019 19:30

#	Modifying user name:	WinNT
#	Modification time:	15. 06. 2019 19:30

#	Program:	/corina/corina34_cracker 3.40 0067  02.08.2006

@<TRIPOS>MOLECULE
ASD01813228
  49   53    0    0    0
SMALL
NO_CHARGES


@<TRIPOS>ATOM
   1 C1             7.4436     1.0402     1.1875 C.2     
   2 C2             6.2058     1.1738     0.5441 C.2     
   3 C3             5.4064     0.0789     0.3922 C.2     
   4 C4             5.8377    -1.1646     0.8835 C.2     
   5 N5             7.0511    -1.2661     1.5080 N.am    
   6 C6             7.8417    -0.1649     1.6538 C.2     
   7 C7             5.0180    -2.2913     0.7287 C.2     
   8 C8             5.4274    -3.5038     1.2026 C.2     
   9 C9             6.6760    -3.6047     1.8439 C.2     
  10 C10            7.4773    -2.4532     1.9845 C.2     
  11 O11            8.5608    -2.5315     2.5384 O.2     
  12 C12            7.1384    -4.8942     2.3618 C.2     
  13 O13            8.3363    -4.9842     2.9755 O.3     
  14 O14            6.4422    -5.8840     2.2387 O.2     
  15 C15            3.6841    -2.1635     0.0391 C.3     
  16 N16            3.8346    -2.4961    -1.3838 N.3     
  17 C17            4.2667    -3.9185    -1.5594 C.3     
  18 C18            3.2100    -4.7391    -0.7570 C.3     
  19 N19            1.9633    -4.6468    -1.5544 N.3     
  20 C20            2.2868    -3.7748    -2.7274 C.3     
  21 C21            2.5416    -2.3700    -2.0986 C.3     
  22 C22            0.9239    -4.1016    -0.7971 C.ar    
  23 C23           -0.0417    -3.3112    -1.4074 C.ar    
  24 C24           -1.0682    -2.7741    -0.6557 C.ar    
  25 C25           -1.1355    -3.0224     0.7030 C.ar    
  26 C26           -0.1759    -3.8088     1.3137 C.ar    
  27 C27            0.8504    -4.3534     0.5670 C.ar    
  28 C28            3.7686    -4.2050    -3.0213 C.3     
  29 H29            8.0836     1.9019     1.3073 H       
  30 H30            5.8870     2.1362     0.1718 H       
  31 H31            4.4498     0.1672    -0.1013 H       
  32 H32            8.7976    -0.2563     2.1482 H       
  33 H33            4.8004    -4.3756     1.0873 H       
  34 H34            8.5985    -5.8563     3.3008 H       
  35 H35            2.9705    -2.8474     0.4986 H       
  36 H36            3.3213    -1.1403     0.1367 H       
  37 H37            5.3123    -4.1335    -1.3389 H       
  38 H38            3.5261    -5.7785    -0.6677 H       
  39 H39            3.0612    -4.3018     0.2302 H       
  40 H40            1.5841    -3.8097    -3.5599 H       
  41 H41            1.7450    -2.1185    -1.3984 H       
  42 H42            2.6131    -1.6130    -2.8796 H       
  43 H43            0.0105    -3.1166    -2.4684 H       
  44 H44           -1.8191    -2.1592    -1.1295 H       
  45 H45           -1.9391    -2.6009     1.2886 H       
  46 H46           -0.2314    -4.0008     2.3751 H       
  47 H47            1.5993    -4.9678     1.0445 H       
  48 H48            4.2493    -3.5600    -3.7568 H       
  49 H49            3.8492    -5.2589    -3.2875 H       
@<TRIPOS>BOND
   1    1    2 1
   2    1    6 2
   3    1   29 1
   4    2    3 2
   5    2   30 1
   6    3    4 1
   7    3   31 1
   8    4    5 1
   9    4    7 2
  10    5    6 1
  11    5   10 am
  12    6   32 1
  13    7    8 1
  14    7   15 1
  15    8    9 2
  16    8   33 1
  17    9   10 1
  18    9   12 1
  19   10   11 2
  20   12   13 1
  21   12   14 2
  22   13   34 1
  23   15   16 1
  24   15   35 1
  25   15   36 1
  26   16   17 1
  27   16   21 1
  28   17   18 1
  29   17   28 1
  30   17   37 1
  31   18   19 1
  32   18   38 1
  33   18   39 1
  34   19   20 1
  35   19   22 1
  36   20   21 1
  37   20   28 1
  38   20   40 1
  39   21   41 1
  40   21   42 1
  41   22   23 ar
  42   22   27 ar
  43   23   24 ar
  44   23   43 1
  45   24   25 ar
  46   24   44 1
  47   25   26 ar
  48   25   45 1
  49   26   27 ar
  50   26   46 1
  51   27   47 1
  52   28   48 1
  53   28   49 1

#	End of record

