#	Name: ASD03730295
#	Creating user name:	WinNT
#	Creation time:	15. 06. 2019 20:44

#	Modifying user name:	WinNT
#	Modification time:	15. 06. 2019 20:44

#	Program:	/corina/corina34_cracker 3.40 0067  02.08.2006

@<TRIPOS>MOLECULE
ASD03730295
  54   59    0    0    0
SMALL
NO_CHARGES


@<TRIPOS>ATOM
   1 O1            -0.3824     1.2045     0.9836 O.3     
   2 C2            -0.3269    -0.2333     1.0382 C.3     
   3 O3             0.7977    -0.5644     0.2026 O.3     
   4 C4             1.6246     0.5212     0.2559 C.ar    
   5 C5             0.8980     1.6089     0.7350 C.ar    
   6 C6             2.9607     0.6713    -0.0697 C.ar    
   7 C7             3.5877     1.9050     0.0770 C.ar    
   8 C8             2.8494     2.9865     0.5480 C.ar    
   9 C9             1.5185     2.8386     0.8784 C.ar    
  10 O10            4.8827     2.2587    -0.1645 O.3     
  11 C11            3.7828     4.1672     0.5679 C.3     
  12 C12            4.9699     3.6919    -0.2810 C.3     
  13 N13            3.2090     6.3437     0.9619 N.am    
  14 C14            3.1478     5.4032    -0.0017 C.2     
  15 C15            4.2028     4.5411     1.9581 C.ar    
  16 C16            4.8358     3.8563     2.9863 C.ar    
  17 C17            5.0943     4.5032     4.1944 C.ar    
  18 C18            4.7178     5.8214     4.3588 C.ar    
  19 C19            4.0886     6.5019     3.3363 C.ar    
  20 C20            3.8235     5.8685     2.1233 C.ar    
  21 O21            2.6732     5.5301    -1.1106 O.2     
  22 C22            6.0964     2.0460     1.8429 C.2     
  23 C23            5.2367     2.4399     2.8002 C.2     
  24 C24            4.7544     1.4077     3.6029 C.2     
  25 C25            5.2174     0.1979     3.2988 C.2     
  26 S26            6.3238     0.3047     1.9366 S.3     
  27 C27            2.6922     7.7059     0.8089 C.3     
  28 C28            1.2301     7.7500     1.2577 C.3     
  29 C29            0.6903     9.1727     1.0980 C.3     
  30 C30           -0.7717     9.2168     1.5467 C.3     
  31 C31           -1.3115    10.6395     1.3870 C.3     
  32 H32           -0.1572    -0.5714     2.0605 H       
  33 H33           -1.2428    -0.6674     0.6373 H       
  34 H34            3.5210    -0.1746    -0.4398 H       
  35 H35            0.9587     3.6841     1.2500 H       
  36 H36            5.9109     4.0571     0.1305 H       
  37 H37            4.8531     4.0037    -1.3188 H       
  38 H38            5.5864     3.9754     4.9979 H       
  39 H39            4.9174     6.3235     5.2940 H       
  40 H40            3.7989     7.5327     3.4773 H       
  41 H41            6.5704     2.6983     1.1244 H       
  42 H42            4.0579     1.5770     4.4108 H       
  43 H43            4.9530    -0.7144     3.8127 H       
  44 H44            3.2810     8.3888     1.4214 H       
  45 H45            2.7604     8.0051    -0.2370 H       
  46 H46            0.6413     7.0671     0.6453 H       
  47 H47            1.1619     7.4508     2.3036 H       
  48 H48            1.2791     9.8556     1.7104 H       
  49 H49            0.7585     9.4719     0.0521 H       
  50 H50           -1.3605     8.5339     0.9343 H       
  51 H51           -0.8400     8.9176     2.5926 H       
  52 H52           -0.7227    11.3224     1.9994 H       
  53 H53           -1.2433    10.9387     0.3411 H       
  54 H54           -2.3531    10.6709     1.7067 H       
@<TRIPOS>BOND
   1    1    2 1
   2    1    5 1
   3    2    3 1
   4    2   32 1
   5    2   33 1
   6    3    4 1
   7    4    5 ar
   8    4    6 ar
   9    5    9 ar
  10    6    7 ar
  11    6   34 1
  12    7    8 ar
  13    7   10 1
  14    8    9 ar
  15    8   11 1
  16    9   35 1
  17   10   12 1
  18   11   12 1
  19   11   14 1
  20   11   15 1
  21   12   36 1
  22   12   37 1
  23   13   14 am
  24   13   20 1
  25   13   27 1
  26   14   21 2
  27   15   16 ar
  28   15   20 ar
  29   16   17 ar
  30   16   23 1
  31   17   18 ar
  32   17   38 1
  33   18   19 ar
  34   18   39 1
  35   19   20 ar
  36   19   40 1
  37   22   23 2
  38   22   26 1
  39   22   41 1
  40   23   24 1
  41   24   25 2
  42   24   42 1
  43   25   26 1
  44   25   43 1
  45   27   28 1
  46   27   44 1
  47   27   45 1
  48   28   29 1
  49   28   46 1
  50   28   47 1
  51   29   30 1
  52   29   48 1
  53   29   49 1
  54   30   31 1
  55   30   50 1
  56   30   51 1
  57   31   52 1
  58   31   53 1
  59   31   54 1

#	End of record

