#	Name: ASD03240571
#	Creating user name:	WinNT
#	Creation time:	15. 06. 2019 20:35

#	Modifying user name:	WinNT
#	Modification time:	15. 06. 2019 20:35

#	Program:	/corina/corina34_cracker 3.40 0067  02.08.2006

@<TRIPOS>MOLECULE
ASD03240571
  57   63    0    0    0
SMALL
NO_CHARGES


@<TRIPOS>ATOM
   1 C1            -0.0166     1.3754     0.0096 C.ar    
   2 C2             0.0021    -0.0041     0.0020 C.ar    
   3 N3             1.1422    -0.6683    -0.0053 N.ar    
   4 C4             2.3145    -0.0481    -0.0053 C.ar    
   5 C5             2.3702     1.3443    -0.0124 C.ar    
   6 C6             1.1861     2.0698     0.0018 C.ar    
   7 N7             3.4821    -0.8057     0.0230 N.pl3   
   8 C8             4.3589    -0.7189     1.1010 C.ar    
   9 C9             4.9949     0.4897     1.4048 C.ar    
  10 C10            4.7637     1.6837     0.5626 C.2     
  11 N11            3.5939     2.0275    -0.0512 N.pl3   
  12 C12            4.6045    -1.8382     1.8849 C.ar    
  13 C13            5.4642    -1.7526     2.9634 C.ar    
  14 C14            6.0851    -0.5544     3.2719 C.ar    
  15 C15            5.8553     0.5664     2.4997 C.ar    
  16 N16            5.6755     2.5948     0.2852 N.2     
  17 C17            5.1463     3.5399    -0.5053 C.2     
  18 C18            3.8238     3.2053    -0.7377 C.2     
  19 C19            2.8524     3.9564    -1.5557 C.ar    
  20 C20            2.7545     5.3446    -1.4308 C.ar    
  21 C21            2.0302     3.2836    -2.4631 C.ar    
  22 C22            1.1248     3.9923    -3.2248 C.ar    
  23 C23            1.0296     5.3665    -3.0920 C.ar    
  24 C24            1.8445     6.0402    -2.1991 C.ar    
  25 C25            5.8525     4.7315    -1.0363 C.2     
  26 C26            0.0378     6.1338    -3.9278 C.3     
  27 N27           -1.0414     5.2868    -4.4532 N.3     
  28 C28           -0.4626     7.4252    -3.2594 C.3     
  29 C29           -0.3740     8.0840    -4.6461 C.3     
  30 C30            0.6923     7.0291    -4.9932 C.3     
  31 C31            6.8177     5.4506    -0.3924 C.2     
  32 N32            7.1991     6.4494    -1.2154 N.pl3   
  33 N33            6.4554     6.3503    -2.3976 N.2     
  34 C34            5.6535     5.3232    -2.2993 C.2     
  35 H35           -0.9556     1.9091     0.0170 H       
  36 H36           -0.9306    -0.5486     0.0025 H       
  37 H37            1.2002     3.1497     0.0061 H       
  38 H38            3.6867    -1.4003    -0.7156 H       
  39 H39            4.1236    -2.7766     1.6514 H       
  40 H40            5.6527    -2.6261     3.5699 H       
  41 H41            6.7516    -0.4964     4.1198 H       
  42 H42            6.3411     1.5000     2.7424 H       
  43 H43            3.3895     5.8715    -0.7341 H       
  44 H44            2.1036     2.2112    -2.5681 H       
  45 H45            0.4888     3.4737    -3.9269 H       
  46 H46            1.7647     7.1127    -2.1006 H       
  47 H47           -0.6688     4.4646    -4.9041 H       
  48 H48           -1.6917     5.0358    -3.7237 H       
  49 H49           -1.4799     7.3519    -2.8749 H       
  50 H50            0.2365     7.8402    -2.5334 H       
  51 H51           -1.2873     7.9894    -5.2335 H       
  52 H52            0.0109     9.1035    -4.6214 H       
  53 H53            1.7076     7.3353    -4.7414 H       
  54 H54            0.6061     6.6383    -6.0071 H       
  55 H55            7.2056     5.2555     0.5964 H       
  56 H56            7.8719     7.1206    -1.0214 H       
  57 H57            4.9547     4.9903    -3.0524 H       
@<TRIPOS>BOND
   1    1    2 ar
   2    1    6 ar
   3    1   35 1
   4    2    3 ar
   5    2   36 1
   6    3    4 ar
   7    4    5 ar
   8    4    7 1
   9    5    6 ar
  10    5   11 1
  11    6   37 1
  12    7    8 1
  13    7   38 1
  14    8    9 ar
  15    8   12 ar
  16    9   10 1
  17    9   15 ar
  18   10   11 1
  19   10   16 2
  20   11   18 1
  21   12   13 ar
  22   12   39 1
  23   13   14 ar
  24   13   40 1
  25   14   15 ar
  26   14   41 1
  27   15   42 1
  28   16   17 1
  29   17   18 2
  30   17   25 1
  31   18   19 1
  32   19   20 ar
  33   19   21 ar
  34   20   24 ar
  35   20   43 1
  36   21   22 ar
  37   21   44 1
  38   22   23 ar
  39   22   45 1
  40   23   24 ar
  41   23   26 1
  42   24   46 1
  43   25   31 2
  44   25   34 1
  45   26   27 1
  46   26   28 1
  47   26   30 1
  48   27   47 1
  49   27   48 1
  50   28   29 1
  51   28   49 1
  52   28   50 1
  53   29   30 1
  54   29   51 1
  55   29   52 1
  56   30   53 1
  57   30   54 1
  58   31   32 1
  59   31   55 1
  60   32   33 1
  61   32   56 1
  62   33   34 2
  63   34   57 1

#	End of record

