#	Name: ASD07932020
#	Creating user name:	WinNT
#	Creation time:	15. 06. 2019 21:14

#	Modifying user name:	WinNT
#	Modification time:	15. 06. 2019 21:14

#	Program:	/corina/corina34_cracker 3.40 0067  02.08.2006

@<TRIPOS>MOLECULE
ASD07932020
  34   35    0    0    0
SMALL
NO_CHARGES


@<TRIPOS>ATOM
   1 N1            -0.0055     1.4467     0.2170 N.pl3   
   2 C2             0.0021    -0.0041     0.0020 C.3     
   3 C3             0.8317    -0.6748     1.1056 C.3     
   4 S4             2.4969     0.0608     1.0953 S.o2    
   5 N5             2.1759     1.6958     1.1084 N.am    
   6 C6             1.1851     2.1437     0.2462 C.2     
   7 C7             2.9037     2.6151     1.9867 C.3     
   8 N8             1.3729     3.1878    -0.5110 N.2     
   9 C9            -1.4107    -0.5268     0.0464 C.ar    
  10 C10            0.6203    -0.3152    -1.3625 C.3     
  11 C11           -2.1676    -0.3785     1.1962 C.ar    
  12 C12           -3.4655    -0.8584     1.2365 C.ar    
  13 C13           -4.0050    -1.4859     0.1271 C.ar    
  14 C14           -3.2459    -1.6330    -1.0220 C.ar    
  15 C15           -1.9523    -1.1490    -1.0628 C.ar    
  16 F16           -1.6396     0.2338     2.2785 F       
  17 F17           -5.2713    -1.9550     0.1652 F       
  18 O18            3.1634    -0.1825     2.3265 O.2     
  19 O19            3.1412    -0.1671    -0.1506 O.2     
  20 N20           -3.8225    -2.3040    -2.2085 N.pl3   
  21 O21           -3.1552    -2.4335    -3.2192 O.2     
  22 O22           -4.9643    -2.7266    -2.1743 O.2     
  23 H23           -0.8462     1.9161     0.3343 H       
  24 H24            0.3609    -0.5048     2.0739 H       
  25 H25            0.9017    -1.7454     0.9133 H       
  26 H26            3.7885     2.9872     1.4701 H       
  27 H27            2.2582     3.4526     2.2511 H       
  28 H28            3.2061     2.0894     2.8924 H       
  29 H29            2.2163     3.6657    -0.4777 H       
  30 H30            1.6427     0.0616    -1.3925 H       
  31 H31            0.6257    -1.3935    -1.5216 H       
  32 H32            0.0331     0.1647    -2.1454 H       
  33 H33           -4.0566    -0.7435     2.1331 H       
  34 H34           -1.3611    -1.2641    -1.9593 H       
@<TRIPOS>BOND
   1    1    2 1
   2    1    6 1
   3    1   23 1
   4    2    3 1
   5    2    9 1
   6    2   10 1
   7    3    4 1
   8    3   24 1
   9    3   25 1
  10    4    5 am
  11    4   18 2
  12    4   19 2
  13    5    6 1
  14    5    7 1
  15    6    8 2
  16    7   26 1
  17    7   27 1
  18    7   28 1
  19    8   29 1
  20    9   11 ar
  21    9   15 ar
  22   10   30 1
  23   10   31 1
  24   10   32 1
  25   11   12 ar
  26   11   16 1
  27   12   13 ar
  28   12   33 1
  29   13   14 ar
  30   13   17 1
  31   14   15 ar
  32   14   20 1
  33   15   34 1
  34   20   21 2
  35   20   22 2

#	End of record

