#	Name: ASD01880404
#	Creating user name:	WinNT
#	Creation time:	15. 06. 2019 19:40

#	Modifying user name:	WinNT
#	Modification time:	15. 06. 2019 19:40

#	Program:	/corina/corina34_cracker 3.40 0067  02.08.2006

@<TRIPOS>MOLECULE
ASD01880404
  42   43    0    0    0
SMALL
NO_CHARGES


@<TRIPOS>ATOM
   1 C1             0.8497     1.0268     0.3791 C.ar    
   2 N2             0.6942    -0.2835     0.3198 N.ar    
   3 C3             1.7371    -1.1001     0.3459 C.ar    
   4 C4             3.0398    -0.5467     0.4393 C.ar    
   5 C5             3.1480     0.8454     0.4991 C.ar    
   6 N6             2.0338     1.5872     0.4661 N.ar    
   7 C7             4.3368    -1.1950     0.4864 C.2     
   8 C8             5.3638    -0.3724     0.5753 C.2     
   9 S9             4.8416     1.3012     0.6109 S.3     
  10 C10            6.8032    -0.8145     0.6383 C.3     
  11 C11            7.4420    -0.6701    -0.7444 C.3     
  12 C12            8.8637    -1.2345    -0.7108 C.3     
  13 N13            1.5585    -2.4703     0.2835 N.pl3   
  14 C14            0.2077    -3.0293     0.1877 C.3     
  15 O15            7.5105    -0.0017     1.5770 O.3     
  16 C16            0.2902    -4.5561     0.1337 C.3     
  17 C17           -2.0788    -7.6486    -3.1069 C.3     
  18 C18           -0.7919    -6.8647    -3.1310 C.2     
  19 C19           -0.5015    -6.0337    -2.1357 C.2     
  20 C20           -1.4362    -5.8789    -1.0102 C.2     
  21 C21           -1.0993    -5.1311     0.0351 C.2     
  22 H22           -0.0260     1.6582     0.3505 H       
  23 H23            4.4524    -2.2683     0.4518 H       
  24 H24            6.8496    -1.8571     0.9529 H       
  25 H25            6.8504    -1.2190    -1.4771 H       
  26 H26            7.4759     0.3837    -1.0208 H       
  27 H27            9.4553    -0.6856     0.0219 H       
  28 H28            8.8298    -2.2883    -0.4345 H       
  29 H29            9.3188    -1.1317    -1.6959 H       
  30 H30            2.3276    -3.0610     0.3032 H       
  31 H31           -0.3731    -2.7274     1.0593 H       
  32 H32           -0.2753    -2.6593    -0.7167 H       
  33 H33            7.5106     0.9406     1.3598 H       
  34 H34            0.8710    -4.8579    -0.7379 H       
  35 H35            0.7733    -4.9261     1.0380 H       
  36 H36           -2.1019    -8.2818    -2.2200 H       
  37 H37           -2.9234    -6.9600    -3.0839 H       
  38 H38           -2.1417    -8.2711    -3.9994 H       
  39 H39           -0.1058    -6.9783    -3.9573 H       
  40 H40            0.4207    -5.4719    -2.1530 H       
  41 H41           -2.3962    -6.3731    -1.0337 H       
  42 H42           -1.8212    -4.9354     0.8142 H       
@<TRIPOS>BOND
   1    1    2 ar
   2    1    6 ar
   3    1   22 1
   4    2    3 ar
   5    3    4 ar
   6    3   13 1
   7    4    5 ar
   8    4    7 1
   9    5    6 ar
  10    5    9 1
  11    7    8 2
  12    7   23 1
  13    8    9 1
  14    8   10 1
  15   10   11 1
  16   10   15 1
  17   10   24 1
  18   11   12 1
  19   11   25 1
  20   11   26 1
  21   12   27 1
  22   12   28 1
  23   12   29 1
  24   13   14 1
  25   13   30 1
  26   14   16 1
  27   14   31 1
  28   14   32 1
  29   15   33 1
  30   16   21 1
  31   16   34 1
  32   16   35 1
  33   17   18 1
  34   17   36 1
  35   17   37 1
  36   17   38 1
  37   18   19 2
  38   18   39 1
  39   19   20 1
  40   19   40 1
  41   20   21 2
  42   20   41 1
  43   21   42 1

#	End of record

