#	Name: ASD01914423
#	Creating user name:	WinNT
#	Creation time:	15. 06. 2019 20:03

#	Modifying user name:	WinNT
#	Modification time:	15. 06. 2019 20:03

#	Program:	/corina/corina34_cracker 3.40 0067  02.08.2006

@<TRIPOS>MOLECULE
ASD01914423
  55   59    0    0    0
SMALL
NO_CHARGES


@<TRIPOS>ATOM
   1 C1            -0.0167     1.3769     0.0096 C.ar    
   2 C2             0.0021    -0.0041     0.0020 C.ar    
   3 C3             1.2140    -0.6809    -0.0132 C.ar    
   4 C4             2.4051     0.0320    -0.0207 C.ar    
   5 C5             2.3825     1.4129    -0.0131 C.ar    
   6 C6             1.1726     2.0864     0.0021 C.ar    
   7 N7             1.2350    -2.0835    -0.0204 N.pl3   
   8 C8             0.5464    -2.9099     0.8264 C.2     
   9 C9             0.8554    -4.1830     0.4665 C.2     
  10 N10            1.7110    -4.1228    -0.5741 N.2     
  11 C11            1.9379    -2.8743    -0.8731 C.2     
  12 C12            0.3427    -5.4200     1.1053 C.ar    
  13 C13           -0.6200    -5.3408     2.1096 C.ar    
  14 C14           -1.0937    -6.4945     2.7007 C.ar    
  15 C15           -0.6138    -7.7287     2.2978 C.ar    
  16 C16            0.3432    -7.8127     1.3007 C.ar    
  17 C17            0.8182    -6.6656     0.6988 C.ar    
  18 C18            2.8396    -2.3875    -1.9782 C.3     
  19 O19            0.8598    -2.5084    -3.2570 O.2     
  20 C20            2.0431    -2.2426    -3.2493 C.2     
  21 N21            2.6457    -1.8176    -4.3774 N.am    
  22 F22            1.1524     3.4372     0.0095 F       
  23 Cl23          -1.2132    -9.1761     3.0457 Cl      
  24 C24            4.0843    -1.4951    -4.3909 C.3     
  25 C25            0.8621    -9.1597     0.8676 C.3     
  26 C26            1.8866    -1.6694    -5.6283 C.3     
  27 C27            1.8711    -0.1905    -6.0346 C.3     
  28 C28            3.2625     0.3703    -5.8846 C.2     
  29 C29            4.2466    -0.2045    -5.1554 C.2     
  30 N30            3.7603     1.4913    -6.4236 N.2     
  31 C31            5.0026     1.6194    -6.0452 C.2     
  32 O32            5.3294     0.5776    -5.2544 O.3     
  33 C33            5.9250     2.7470    -6.4309 C.3     
  34 H34           -0.9594     1.9038     0.0169 H       
  35 H35           -0.9256    -0.5571     0.0082 H       
  36 H36            3.3489    -0.4929    -0.0321 H       
  37 H37            3.3090     1.9679    -0.0185 H       
  38 H38           -0.1141    -2.6083     1.6258 H       
  39 H39           -0.9946    -4.3783     2.4251 H       
  40 H40           -1.8399    -6.4342     3.4792 H       
  41 H41            1.5646    -6.7322    -0.0789 H       
  42 H42            3.2630    -1.4216    -1.7027 H       
  43 H43            3.6443    -3.1061    -2.1336 H       
  44 H44            4.4460    -1.3697    -3.3704 H       
  45 H45            4.6385    -2.2921    -4.8866 H       
  46 H46            0.2444    -9.5429     0.0554 H       
  47 H47            1.8918    -9.0592     0.5247 H       
  48 H48            0.8252    -9.8510     1.7094 H       
  49 H49            2.3604    -2.2581    -6.4138 H       
  50 H50            0.8645    -2.0166    -5.4775 H       
  51 H51            1.5509    -0.1002    -7.0726 H       
  52 H52            1.1847     0.3583    -5.3897 H       
  53 H53            5.8415     3.5511    -5.6998 H       
  54 H54            6.9524     2.3837    -6.4556 H       
  55 H55            5.6484     3.1218    -7.4163 H       
@<TRIPOS>BOND
   1    1    2 ar
   2    1    6 ar
   3    1   34 1
   4    2    3 ar
   5    2   35 1
   6    3    4 ar
   7    3    7 1
   8    4    5 ar
   9    4   36 1
  10    5    6 ar
  11    5   37 1
  12    6   22 1
  13    7    8 1
  14    7   11 1
  15    8    9 2
  16    8   38 1
  17    9   10 1
  18    9   12 1
  19   10   11 2
  20   11   18 1
  21   12   13 ar
  22   12   17 ar
  23   13   14 ar
  24   13   39 1
  25   14   15 ar
  26   14   40 1
  27   15   16 ar
  28   15   23 1
  29   16   17 ar
  30   16   25 1
  31   17   41 1
  32   18   20 1
  33   18   42 1
  34   18   43 1
  35   19   20 2
  36   20   21 am
  37   21   26 1
  38   21   24 1
  39   24   29 1
  40   24   44 1
  41   24   45 1
  42   25   46 1
  43   25   47 1
  44   25   48 1
  45   26   27 1
  46   26   49 1
  47   26   50 1
  48   27   28 1
  49   27   51 1
  50   27   52 1
  51   28   29 2
  52   28   30 1
  53   29   32 1
  54   30   31 2
  55   31   32 1
  56   31   33 1
  57   33   53 1
  58   33   54 1
  59   33   55 1

#	End of record

