#	Name: ASD00844599
#	Creating user name:	WinNT
#	Creation time:	15. 06. 2019 18:50

#	Modifying user name:	WinNT
#	Modification time:	15. 06. 2019 18:50

#	Program:	/corina/corina34_cracker 3.40 0067  02.08.2006

@<TRIPOS>MOLECULE
ASD00844599
  92   97    0    0    0
SMALL
NO_CHARGES


@<TRIPOS>ATOM
   1 C1             0.7016     1.0924    -0.2344 C.ar    
   2 C2             0.9185    -0.2432    -0.5395 C.ar    
   3 C3             0.7873    -1.2083     0.4488 C.ar    
   4 C4             0.4411    -0.8370     1.7333 C.ar    
   5 C5             0.2248     0.4952     2.0348 C.ar    
   6 C6             0.3554     1.4586     1.0521 C.ar    
   7 C7             1.0218    -2.6603     0.1208 C.3     
   8 C8             0.6891    -3.5336     1.3118 C.2     
   9 C9             0.1917    -3.0744    -1.0959 C.3     
  10 C10           -1.2586    -2.7470    -0.8497 C.2     
  11 N11           -2.1958    -3.1262    -1.7409 N.am    
  12 O12           -1.5823    -2.1422     0.1505 O.2     
  13 C13           -3.6002    -2.7207    -1.5781 C.3     
  14 C14           -4.0834    -2.1008    -2.8936 C.3     
  15 N15           -3.8316    -3.0396    -3.9951 N.3     
  16 C16           -2.3938    -3.2881    -4.1653 C.3     
  17 C17           -1.8403    -3.9514    -2.9052 C.3     
  18 C18           -4.4343    -2.5581    -5.2453 C.3     
  19 C19           -4.0474    -3.4942    -6.3936 C.3     
  20 C20           -4.7272    -3.0225    -7.6810 C.3     
  21 N21           -6.1839    -3.0225    -7.4951 N.3     
  22 C22           -6.5832    -2.0949    -6.4291 C.3     
  23 C23           -5.9588    -2.5390    -5.1043 C.3     
  24 H24           -6.6586    -2.8066    -8.3589 H       
  25 O25           -0.3931    -3.6367     1.8496 O.2     
  26 N26            1.8182    -4.1726     1.6616 N.am    
  27 C27            2.4909    -2.9172    -0.1246 C.ar    
  28 C28            2.8938    -3.8334     0.8392 C.ar    
  29 C29            3.3827    -2.4329    -1.0549 C.ar    
  30 C30            4.7001    -2.8592    -1.0366 C.ar    
  31 C31            5.1147    -3.7728    -0.0805 C.ar    
  32 C32            4.2199    -4.2592     0.8534 C.ar    
  33 Cl33           5.8284    -2.2518    -2.2078 Cl      
  34 F34            6.3996    -4.1897    -0.0614 F       
  35 C35            1.5605    -6.8412     2.2832 C.ar    
  36 C36            0.2960    -7.1193     1.7843 C.ar    
  37 C37            2.5386    -7.8175     2.2730 C.ar    
  38 C38            2.2603    -9.0721     1.7660 C.ar    
  39 C39            0.9969    -9.3552     1.2659 C.ar    
  40 C40            0.0140    -8.3778     1.2753 C.ar    
  41 O41            0.7236   -10.5896     0.7677 O.3     
  42 O42           -0.6656    -6.1590     1.7950 O.3     
  43 C43            1.7838   -11.5475     0.7900 C.3     
  44 C44           -1.9442    -6.5152     1.2655 C.3     
  45 C45           -2.8883    -5.3151     1.3616 C.3     
  46 S46            1.9217    -5.2399     2.9235 S.o2    
  47 O47            3.2867    -5.2640     3.3178 O.2     
  48 O48            0.8616    -4.9147     3.8122 O.2     
  49 O49            1.2586    -0.6060    -1.8042 O.3     
  50 C50            1.3089     0.4316    -2.7854 C.3     
  51 C51            1.7903    -0.1484    -4.1169 C.3     
  52 F52            3.0261    -0.7775    -3.9320 F       
  53 F53            0.8576    -1.0808    -4.5837 F       
  54 H54            0.8075     1.8459    -1.0009 H       
  55 H55            0.3388    -1.5878     2.5029 H       
  56 H56           -0.0465     0.7833     3.0396 H       
  57 H57            0.1861     2.4984     1.2900 H       
  58 H58            0.5418    -2.5343    -1.9756 H       
  59 H59            0.2991    -4.1465    -1.2613 H       
  60 H60           -4.2080    -3.5934    -1.3395 H       
  61 H61           -3.6787    -1.9861    -0.7767 H       
  62 H62           -5.1519    -1.8953    -2.8280 H       
  63 H63           -3.5445    -1.1714    -3.0774 H       
  64 H64           -2.2369    -3.9435    -5.0220 H       
  65 H65           -1.8784    -2.3421    -4.3314 H       
  66 H66           -0.7559    -4.0332    -2.9807 H       
  67 H67           -2.2780    -4.9431    -2.7911 H       
  68 H68           -4.0746    -1.5515    -5.4590 H       
  69 H69           -2.9657    -3.4792    -6.5267 H       
  70 H70           -4.3720    -4.5085    -6.1613 H       
  71 H71           -4.3917    -2.0133    -7.9201 H       
  72 H72           -4.4653    -3.6952    -8.4976 H       
  73 H73           -6.2390    -1.0902    -6.6741 H       
  74 H74           -7.6693    -2.0940    -6.3364 H       
  75 H75           -6.3135    -3.5382    -4.8517 H       
  76 H76           -6.2427    -1.8414    -4.3163 H       
  77 H77            3.0551    -1.7213    -1.7984 H       
  78 H78            4.5496    -4.9707     1.5960 H       
  79 H79            3.5222    -7.5992     2.6618 H       
  80 H80            3.0265    -9.8332     1.7585 H       
  81 H81           -0.9697    -8.5963     0.8869 H       
  82 H82            2.6232   -11.1742     0.2034 H       
  83 H83            2.1039   -11.7113     1.8190 H       
  84 H84            1.4329   -12.4878     0.3646 H       
  85 H85           -1.8359    -6.8097     0.2217 H       
  86 H86           -2.3550    -7.3474     1.8371 H       
  87 H87           -2.9966    -5.0206     2.4054 H       
  88 H88           -2.4775    -4.4829     0.7900 H       
  89 H89           -3.8636    -5.5869     0.9577 H       
  90 H90            0.3144     0.8590    -2.9136 H       
  91 H91            1.9989     1.2090    -2.4572 H       
  92 H92            1.8970     0.6550    -4.8458 H       
@<TRIPOS>BOND
   1    1    2 ar
   2    1    6 ar
   3    1   54 1
   4    2    3 ar
   5    2   49 1
   6    3    4 ar
   7    3    7 1
   8    4    5 ar
   9    4   55 1
  10    5    6 ar
  11    5   56 1
  12    6   57 1
  13    7    8 1
  14    7    9 1
  15    7   27 1
  16    8   25 2
  17    8   26 am
  18    9   10 1
  19    9   58 1
  20    9   59 1
  21   10   11 am
  22   10   12 2
  23   11   13 1
  24   11   17 1
  25   13   14 1
  26   13   60 1
  27   13   61 1
  28   14   15 1
  29   14   62 1
  30   14   63 1
  31   15   16 1
  32   15   18 1
  33   16   17 1
  34   16   64 1
  35   16   65 1
  36   17   66 1
  37   17   67 1
  38   18   19 1
  39   18   23 1
  40   18   68 1
  41   19   20 1
  42   19   69 1
  43   19   70 1
  44   20   21 1
  45   20   71 1
  46   20   72 1
  47   21   22 1
  48   21   24 1
  49   22   23 1
  50   22   73 1
  51   22   74 1
  52   23   75 1
  53   23   76 1
  54   26   46 am
  55   26   28 1
  56   27   28 ar
  57   27   29 ar
  58   28   32 ar
  59   29   30 ar
  60   29   77 1
  61   30   31 ar
  62   30   33 1
  63   31   32 ar
  64   31   34 1
  65   32   78 1
  66   35   36 ar
  67   35   37 ar
  68   35   46 1
  69   36   42 1
  70   36   40 ar
  71   37   38 ar
  72   37   79 1
  73   38   39 ar
  74   38   80 1
  75   39   40 ar
  76   39   41 1
  77   40   81 1
  78   41   43 1
  79   42   44 1
  80   43   82 1
  81   43   83 1
  82   43   84 1
  83   44   45 1
  84   44   85 1
  85   44   86 1
  86   45   87 1
  87   45   88 1
  88   45   89 1
  89   46   47 2
  90   46   48 2
  91   49   50 1
  92   50   51 1
  93   50   90 1
  94   50   91 1
  95   51   52 1
  96   51   53 1
  97   51   92 1

#	End of record

