#	Name: ASD01200304
#	Creating user name:	WinNT
#	Creation time:	15. 06. 2019 19:08

#	Modifying user name:	WinNT
#	Modification time:	15. 06. 2019 19:08

#	Program:	/corina/corina34_cracker 3.40 0067  02.08.2006

@<TRIPOS>MOLECULE
ASD01200304
  26   26    0    0    0
SMALL
NO_CHARGES


@<TRIPOS>ATOM
   1 C1            -0.0211     1.7054     0.0114 C.2     
   2 S2             0.0021    -0.0041     0.0020 S.3     
   3 C3            -1.7592    -0.0390     0.0186 C.2     
   4 C4            -2.1983     1.2199     0.0296 C.2     
   5 N5            -1.2448     2.1345     0.0310 N.2     
   6 N6             1.1041     2.5148     0.0050 N.pl3   
   7 C7            -3.6637     1.5711     0.0449 C.3     
   8 P8            -4.2388     1.7033     1.7698 P.3     
   9 O9            -3.9247     0.4502     2.4919 O.2     
  10 O10           -3.4974     2.9378     2.4896 O.3     
  11 C11           -3.6561     3.2389     3.8775 C.3     
  12 C12           -2.8166     4.4679     4.2320 C.3     
  13 C13           -6.0404     1.9810     1.7900 C.3     
  14 H14           -2.3758    -0.9256     0.0192 H       
  15 H15            1.9883     2.1161    -0.0059 H       
  16 H16            1.0073     3.4800     0.0115 H       
  17 H17           -3.8142     2.5241    -0.4623 H       
  18 H18           -4.2291     0.7931    -0.4680 H       
  19 H19           -4.7060     3.4432     4.0872 H       
  20 H20           -3.3253     2.3885     4.4739 H       
  21 H21           -2.9377     4.6975     5.2907 H       
  22 H22           -1.7667     4.2635     4.0223 H       
  23 H23           -3.1474     5.3182     3.6357 H       
  24 H24           -6.5424     1.1452     1.3026 H       
  25 H25           -6.3843     2.0600     2.8213 H       
  26 H26           -6.2718     2.9039     1.2581 H       
@<TRIPOS>BOND
   1    1    2 1
   2    1    6 1
   3    1    5 2
   4    2    3 1
   5    3    4 2
   6    3   14 1
   7    4    5 1
   8    4    7 1
   9    6   15 1
  10    6   16 1
  11    7    8 1
  12    7   17 1
  13    7   18 1
  14    8    9 2
  15    8   10 1
  16    8   13 1
  17   10   11 1
  18   11   12 1
  19   11   19 1
  20   11   20 1
  21   12   21 1
  22   12   22 1
  23   12   23 1
  24   13   24 1
  25   13   25 1
  26   13   26 1

#	End of record

