#	Name: ASD03092414
#	Creating user name:	WinNT
#	Creation time:	15. 06. 2019 20:32

#	Modifying user name:	WinNT
#	Modification time:	15. 06. 2019 20:32

#	Program:	/corina/corina34_cracker 3.40 0067  02.08.2006

@<TRIPOS>MOLECULE
ASD03092414
  56   59    0    0    0
SMALL
NO_CHARGES


@<TRIPOS>ATOM
   1 C1            -0.1126     1.2327    -0.7290 C.3     
   2 C2            -0.1602    -0.2914    -0.9282 C.3     
   3 C3             1.2697    -0.3309    -0.3637 C.3     
   4 C4             1.4166     1.1214    -0.8477 C.3     
   5 C5            -0.7505     2.0085    -1.8525 C.2     
   6 O6            -1.2370     1.4210    -2.7954 O.2     
   7 N7            -0.7802     3.3553    -1.8095 N.am    
   8 C8            -1.4003     4.1095    -2.9016 C.3     
   9 S9            -1.7689     7.9579    -1.8790 S.3     
  10 C10           -0.2738     7.5643    -2.6082 C.2     
  11 N11           -0.2373     6.3015    -2.9076 N.2     
  12 C12           -1.3020     5.5852    -2.6122 C.2     
  13 C13           -2.2967     6.2838    -2.0289 C.2     
  14 C14           -4.7887     6.3900    -1.9309 C.ar    
  15 C15           -3.5999     5.7409    -1.5923 C.ar    
  16 C16           -3.6635     4.5668    -0.8327 C.ar    
  17 C17           -4.9087     4.1002    -0.4496 C.ar    
  18 C18           -6.0399     4.8017    -0.8257 C.ar    
  19 N19           -5.9499     5.9059    -1.5421 N.ar    
  20 C20           -7.3975     4.2961    -0.4106 C.3     
  21 N21            0.7513     8.4634    -2.8456 N.3     
  22 C22            0.3869     9.8114    -2.3858 C.3     
  23 C23            1.5215    10.7831    -2.7209 C.3     
  24 O24            2.7341    10.3166    -2.1230 O.3     
  25 C25            3.1192     9.0068    -2.5490 C.3     
  26 C26            2.0007     8.0171    -2.2122 C.3     
  27 C27            4.4030     8.5918    -1.8275 C.3     
  28 C28            1.1834    12.1714    -2.1739 C.3     
  29 H29           -0.4518     1.5552     0.2554 H       
  30 H30           -0.8933    -0.7918    -0.2954 H       
  31 H31           -0.2255    -0.5933    -1.9735 H       
  32 H32            1.3084    -0.4358     0.7205 H       
  33 H33            1.9243    -1.0320    -0.8815 H       
  34 H34            1.7824     1.2057    -1.8710 H       
  35 H35            1.9564     1.7617    -0.1501 H       
  36 H36           -0.3911     3.8252    -1.0553 H       
  37 H37           -0.8841     3.8872    -3.8356 H       
  38 H38           -2.4490     3.8256    -2.9897 H       
  39 H39           -4.7554     7.2993    -2.5127 H       
  40 H40           -2.7639     4.0386    -0.5531 H       
  41 H41           -4.9964     3.1974     0.1367 H       
  42 H42           -7.6676     4.7292     0.5525 H       
  43 H43           -8.1365     4.5838    -1.1584 H       
  44 H44           -7.3703     3.2098    -0.3258 H       
  45 H45           -0.5267    10.1321    -2.8865 H       
  46 H46            0.2262     9.7973    -1.3078 H       
  47 H47            1.6465    10.8378    -3.8023 H       
  48 H48            3.2906     9.0099    -3.6254 H       
  49 H49            1.8658     7.9742    -1.1315 H       
  50 H50            2.2652     7.0280    -2.5861 H       
  51 H51            4.2297     8.5873    -0.7514 H       
  52 H52            4.6959     7.5935    -2.1526 H       
  53 H53            5.1978     9.2990    -2.0646 H       
  54 H54            1.0606    12.1158    -1.0922 H       
  55 H55            1.9916    12.8628    -2.4127 H       
  56 H56            0.2572    12.5248    -2.6270 H       
@<TRIPOS>BOND
   1    1    2 1
   2    1    4 1
   3    1    5 1
   4    1   29 1
   5    2    3 1
   6    2   30 1
   7    2   31 1
   8    3    4 1
   9    3   32 1
  10    3   33 1
  11    4   34 1
  12    4   35 1
  13    5    6 2
  14    5    7 am
  15    7    8 1
  16    7   36 1
  17    8   12 1
  18    8   37 1
  19    8   38 1
  20    9   10 1
  21    9   13 1
  22   10   11 2
  23   10   21 1
  24   11   12 1
  25   12   13 2
  26   13   15 1
  27   14   15 ar
  28   14   19 ar
  29   14   39 1
  30   15   16 ar
  31   16   17 ar
  32   16   40 1
  33   17   18 ar
  34   17   41 1
  35   18   19 ar
  36   18   20 1
  37   20   42 1
  38   20   43 1
  39   20   44 1
  40   21   22 1
  41   21   26 1
  42   22   23 1
  43   22   45 1
  44   22   46 1
  45   23   24 1
  46   23   28 1
  47   23   47 1
  48   24   25 1
  49   25   26 1
  50   25   27 1
  51   25   48 1
  52   26   49 1
  53   26   50 1
  54   27   51 1
  55   27   52 1
  56   27   53 1
  57   28   54 1
  58   28   55 1
  59   28   56 1

#	End of record

