#	Name: ASD02448125
#	Creating user name:	WinNT
#	Creation time:	15. 06. 2019 20:21

#	Modifying user name:	WinNT
#	Modification time:	15. 06. 2019 20:21

#	Program:	/corina/corina34_cracker 3.40 0067  02.08.2006

@<TRIPOS>MOLECULE
ASD02448125
  72   77    0    0    0
SMALL
NO_CHARGES


@<TRIPOS>ATOM
   1 C1            -0.0234     1.3534    -0.0539 C.ar    
   2 C2            -0.0044    -0.0279    -0.0458 C.ar    
   3 C3             1.2069    -0.7075    -0.0373 C.ar    
   4 C4             2.3986     0.0017    -0.0370 C.ar    
   5 C5             2.3768     1.3897    -0.0452 C.ar    
   6 C6             1.1618     2.0636    -0.0536 C.ar    
   7 N7             3.5747     2.1078    -0.0445 N.am    
   8 C8             3.8109     3.4697    -0.5411 C.3     
   9 C9             5.2375     3.8758    -0.3565 C.2     
  10 N10            6.0168     2.9459     0.2135 N.am    
  11 S11            5.0635     1.6179     0.5274 S.o2    
  12 O12            5.6573     4.9617    -0.6961 O.2     
  13 O13            4.9602     1.5004     1.9398 O.2     
  14 O14            5.5082     0.5716    -0.3250 O.2     
  15 N15            1.2249    -2.1094    -0.0286 N.pl3   
  16 C16            1.8566    -2.9190    -0.9345 C.2     
  17 C17            0.6234    -2.9174     0.8838 C.2     
  18 N18            0.8591    -4.1598     0.5669 N.2     
  19 C19            1.6160    -4.1991    -0.5485 C.2     
  20 C20            2.0998    -5.4233    -1.2329 C.ar    
  21 C21            1.7773    -6.6822    -0.7263 C.ar    
  22 C22            2.8732    -5.3195    -2.3872 C.ar    
  23 C23            3.3210    -6.4613    -3.0203 C.ar    
  24 C24            3.0029    -7.7085    -2.5111 C.ar    
  25 C25            2.2304    -7.8182    -1.3675 C.ar    
  26 C26           -0.1840    -2.4529     2.0685 C.3     
  27 C27            0.6966    -2.4093     3.2906 C.ar    
  28 C28            1.4592    -1.2850     3.5507 C.ar    
  29 C29            0.7349    -3.4915     4.1513 C.ar    
  30 C30            1.5389    -3.4567     5.2725 C.ar    
  31 C31            2.3133    -2.3287     5.5366 C.ar    
  32 C32            2.2675    -1.2396     4.6685 C.ar    
  33 C33            3.1796    -2.2854     6.7404 C.ar    
  34 C34            2.6562    -2.6143     7.9916 C.ar    
  35 C35            4.5189    -1.9221     6.6245 C.ar    
  36 C36            5.3228    -1.8839     7.7517 C.ar    
  37 C37            4.7945    -2.2071     8.9936 C.ar    
  38 C38            3.4666    -2.5732     9.1108 C.ar    
  39 Cl39           3.5691    -9.1403    -3.3131 Cl      
  40 Cl40           0.8086    -6.8207     0.7077 Cl      
  41 O41            6.6308    -1.5299     7.6413 O.3     
  42 C42            7.4017    -1.5117     8.8444 C.3     
  43 C43            8.8379    -1.0931     8.5236 C.3     
  44 C44            9.6632    -1.0735     9.8117 C.3     
  45 F45            1.3588    -2.9720     8.1091 F       
  46 H46           -0.9666     1.8793    -0.0650 H       
  47 H47           -0.9326    -0.5800    -0.0457 H       
  48 H48            3.3416    -0.5247    -0.0301 H       
  49 H49            1.1438     3.1434    -0.0600 H       
  50 H50            3.5624     3.5110    -1.6016 H       
  51 H51            3.1691     4.1638     0.0013 H       
  52 H52            6.9628     3.0322     0.4099 H       
  53 H53            2.4338    -2.6014    -1.7903 H       
  54 H54            3.1216    -4.3471    -2.7861 H       
  55 H55            3.9205    -6.3814    -3.9151 H       
  56 H56            1.9852    -8.7936    -0.9739 H       
  57 H57           -0.5800    -1.4569     1.8703 H       
  58 H58           -1.0090    -3.1445     2.2396 H       
  59 H59            1.4224    -0.4412     2.8776 H       
  60 H60            0.1343    -4.3652     3.9456 H       
  61 H61            1.5676    -4.3019     5.9442 H       
  62 H62            2.8659    -0.3630     4.8682 H       
  63 H63            4.9299    -1.6710     5.6578 H       
  64 H64            5.4238    -2.1764     9.8707 H       
  65 H65            3.0603    -2.8238    10.0796 H       
  66 H66            6.9641    -0.8010     9.5456 H       
  67 H67            7.4040    -2.5067     9.2896 H       
  68 H68            9.2754    -1.8037     7.8225 H       
  69 H69            8.8355    -0.0981     8.0785 H       
  70 H70            9.2257    -0.3629    10.5129 H       
  71 H71            9.6656    -2.0685    10.2569 H       
  72 H72           10.6864    -0.7753     9.5832 H       
@<TRIPOS>BOND
   1    1    2 ar
   2    1    6 ar
   3    1   46 1
   4    2    3 ar
   5    2   47 1
   6    3    4 ar
   7    3   15 1
   8    4    5 ar
   9    4   48 1
  10    5    6 ar
  11    5    7 1
  12    6   49 1
  13    7    8 1
  14    7   11 am
  15    8    9 1
  16    8   50 1
  17    8   51 1
  18    9   10 am
  19    9   12 2
  20   10   11 am
  21   10   52 1
  22   11   13 2
  23   11   14 2
  24   15   16 1
  25   15   17 1
  26   16   19 2
  27   16   53 1
  28   17   18 2
  29   17   26 1
  30   18   19 1
  31   19   20 1
  32   20   21 ar
  33   20   22 ar
  34   21   40 1
  35   21   25 ar
  36   22   23 ar
  37   22   54 1
  38   23   24 ar
  39   23   55 1
  40   24   25 ar
  41   24   39 1
  42   25   56 1
  43   26   27 1
  44   26   57 1
  45   26   58 1
  46   27   28 ar
  47   27   29 ar
  48   28   32 ar
  49   28   59 1
  50   29   30 ar
  51   29   60 1
  52   30   31 ar
  53   30   61 1
  54   31   32 ar
  55   31   33 1
  56   32   62 1
  57   33   34 ar
  58   33   35 ar
  59   34   45 1
  60   34   38 ar
  61   35   36 ar
  62   35   63 1
  63   36   37 ar
  64   36   41 1
  65   37   38 ar
  66   37   64 1
  67   38   65 1
  68   41   42 1
  69   42   43 1
  70   42   66 1
  71   42   67 1
  72   43   44 1
  73   43   68 1
  74   43   69 1
  75   44   70 1
  76   44   71 1
  77   44   72 1

#	End of record

