#	Name: ASD01900517
#	Creating user name:	WinNT
#	Creation time:	15. 06. 2019 19:52

#	Modifying user name:	WinNT
#	Modification time:	15. 06. 2019 19:52

#	Program:	/corina/corina34_cracker 3.40 0067  02.08.2006

@<TRIPOS>MOLECULE
ASD01900517
  28   30    0    0    0
SMALL
NO_CHARGES


@<TRIPOS>ATOM
   1 C1             0.3939     3.9794     0.6057 C.ar    
   2 C2             0.8281     5.0145     1.4469 C.ar    
   3 C3             2.1918     5.2771     1.5464 C.ar    
   4 C4             3.0642     4.5005     0.8065 C.ar    
   5 C5             2.5634     3.4929    -0.0053 C.ar    
   6 N6             1.2719     3.2608    -0.0849 N.ar    
   7 O7            -0.2658     5.5622     2.0117 O.3     
   8 N8            -1.4205     4.8926     1.5466 N.2     
   9 C9            -1.0753     3.9546     0.7096 C.2     
  10 N10           -1.9330     3.0871     0.0457 N.pl3   
  11 C11           -3.3169     3.2521     0.1557 C.ar    
  12 C12           -3.8520     4.5155     0.3735 C.ar    
  13 C13           -5.2192     4.6755     0.4818 C.ar    
  14 C14           -6.0564     3.5786     0.3740 C.ar    
  15 C15           -5.5262     2.3191     0.1571 C.ar    
  16 C16           -4.1597     2.1541     0.0418 C.ar    
  17 C17           -5.8004     6.0457     0.7181 C.3     
  18 Cl18          -7.7747     3.7833     0.5118 Cl      
  19 H19            2.5587     6.0672     2.1849 H       
  20 H20            4.1283     4.6773     0.8598 H       
  21 H21            3.2471     2.8881    -0.5824 H       
  22 H22           -1.5718     2.3668    -0.4943 H       
  23 H23           -3.1992     5.3717     0.4585 H       
  24 H24           -6.1817     1.4648     0.0737 H       
  25 H25           -3.7467     1.1714    -0.1320 H       
  26 H26           -6.0036     6.5244    -0.2399 H       
  27 H27           -6.7284     5.9544     1.2827 H       
  28 H28           -5.0897     6.6495     1.2825 H       
@<TRIPOS>BOND
   1    1    2 ar
   2    1    6 ar
   3    1    9 1
   4    2    3 ar
   5    2    7 1
   6    3    4 ar
   7    3   19 1
   8    4    5 ar
   9    4   20 1
  10    5    6 ar
  11    5   21 1
  12    7    8 1
  13    8    9 2
  14    9   10 1
  15   10   11 1
  16   10   22 1
  17   11   12 ar
  18   11   16 ar
  19   12   13 ar
  20   12   23 1
  21   13   14 ar
  22   13   17 1
  23   14   15 ar
  24   14   18 1
  25   15   16 ar
  26   15   24 1
  27   16   25 1
  28   17   26 1
  29   17   27 1
  30   17   28 1

#	End of record

