#	Name: ASD01811966
#	Creating user name:	WinNT
#	Creation time:	15. 06. 2019 19:27

#	Modifying user name:	WinNT
#	Modification time:	15. 06. 2019 19:27

#	Program:	/corina/corina34_cracker 3.40 0067  02.08.2006

@<TRIPOS>MOLECULE
ASD01811966
  42   44    0    0    0
SMALL
NO_CHARGES


@<TRIPOS>ATOM
   1 C1             0.3026     1.7833     0.5688 C.ar    
   2 C2             0.1650     0.4044     0.5817 C.ar    
   3 C3             1.2650    -0.3994     0.3830 C.ar    
   4 C4             2.5308     0.1658     0.1663 C.ar    
   5 C5             2.6661     1.5530     0.1551 C.ar    
   6 C6             1.5392     2.3524     0.3578 C.ar    
   7 C7             3.6611    -0.7525    -0.0423 C.2     
   8 N8             4.6028    -0.5771    -0.9003 N.2     
   9 C9             4.6429     0.5952    -1.7736 C.3     
  10 C10            4.8032     1.8281    -0.9267 C.2     
  11 N11            3.8757     2.1981    -0.0467 N.am    
  12 S12            6.1226     2.7171    -1.0875 S.2     
  13 C13            3.7190    -1.9703     0.7995 C.ar    
  14 C14            3.0673    -2.0010     2.0322 C.ar    
  15 C15            3.1246    -3.1383     2.8114 C.ar    
  16 C16            3.8269    -4.2464     2.3724 C.ar    
  17 C17            4.4757    -4.2219     1.1508 C.ar    
  18 C18            4.4206    -3.0926     0.3598 C.ar    
  19 Cl19          -1.3946    -0.3096     0.8491 Cl      
  20 C20            3.3393     0.6862    -2.5694 C.3     
  21 C21            3.1085    -0.6259    -3.3219 C.3     
  22 C22            1.8050    -0.5349    -4.1177 C.3     
  23 C23            5.8264     0.4771    -2.7359 C.3     
  24 H24           -0.5619     2.4128     0.7199 H       
  25 H25            1.1528    -1.4735     0.3943 H       
  26 H26            1.6382     3.4278     0.3486 H       
  27 H27            4.0610     2.9805     0.4960 H       
  28 H28            2.5194    -1.1363     2.3762 H       
  29 H29            2.6203    -3.1633     3.7662 H       
  30 H30            3.8691    -5.1342     2.9860 H       
  31 H31            5.0227    -5.0899     0.8136 H       
  32 H32            4.9272    -3.0747    -0.5939 H       
  33 H33            2.5085     0.8645    -1.8867 H       
  34 H34            3.4058     1.5074    -3.2830 H       
  35 H35            3.9393    -0.8041    -4.0046 H       
  36 H36            3.0420    -1.4471    -2.6083 H       
  37 H37            1.6406    -1.4696    -4.6538 H       
  38 H38            0.9742    -0.3566    -3.4350 H       
  39 H39            1.8715     0.2864    -4.8313 H       
  40 H40            5.7140    -0.4223    -3.3414 H       
  41 H41            5.8548     1.3515    -3.3860 H       
  42 H42            6.7536     0.4178    -2.1660 H       
@<TRIPOS>BOND
   1    1    2 ar
   2    1    6 ar
   3    1   24 1
   4    2    3 ar
   5    2   19 1
   6    3    4 ar
   7    3   25 1
   8    4    5 ar
   9    4    7 1
  10    5    6 ar
  11    5   11 1
  12    6   26 1
  13    7    8 2
  14    7   13 1
  15    8    9 1
  16    9   10 1
  17    9   20 1
  18    9   23 1
  19   10   11 am
  20   10   12 2
  21   11   27 1
  22   13   14 ar
  23   13   18 ar
  24   14   15 ar
  25   14   28 1
  26   15   16 ar
  27   15   29 1
  28   16   17 ar
  29   16   30 1
  30   17   18 ar
  31   17   31 1
  32   18   32 1
  33   20   21 1
  34   20   33 1
  35   20   34 1
  36   21   22 1
  37   21   35 1
  38   21   36 1
  39   22   37 1
  40   22   38 1
  41   22   39 1
  42   23   40 1
  43   23   41 1
  44   23   42 1

#	End of record

