#	Name: ASD01820026
#	Creating user name:	WinNT
#	Creation time:	15. 06. 2019 19:36

#	Modifying user name:	WinNT
#	Modification time:	15. 06. 2019 19:36

#	Program:	/corina/corina34_cracker 3.40 0067  02.08.2006

@<TRIPOS>MOLECULE
ASD01820026
  55   57    0    0    0
SMALL
NO_CHARGES


@<TRIPOS>ATOM
   1 C1             3.1906     0.1837     4.3262 C.ar    
   2 C2             3.4481    -1.0996     4.7747 C.ar    
   3 C3             2.4165    -2.0126     4.8872 C.ar    
   4 C4             1.1273    -1.6445     4.5513 C.ar    
   5 C5             0.8687    -0.3616     4.1023 C.ar    
   6 C6             1.8997     0.5545     3.9953 C.ar    
   7 C7             1.6186     1.9521     3.5067 C.3     
   8 O8             1.3072     2.7923     4.6200 O.3     
   9 Cl9            4.4863     1.3305     4.1855 Cl      
  10 Cl10          -0.7505     0.1003     3.6794 Cl      
  11 N11            1.0255     4.1345     4.2675 N.2     
  12 C12            0.7291     4.9952     5.1854 C.2     
  13 C13            0.4351     6.3955     4.8177 C.ar    
  14 C14            0.1120     7.3435     5.7956 C.ar    
  15 C15           -0.1555     8.6403     5.4074 C.ar    
  16 N16           -0.1097     8.9901     4.1364 N.ar    
  17 C17            0.1900     8.1289     3.1834 C.ar    
  18 C18            0.4775     6.8128     3.4823 C.ar    
  19 C19           -0.4012    10.3788     3.7717 C.3     
  20 C20            0.8943    11.1926     3.7861 C.3     
  21 C21            0.5898    12.6428     3.4053 C.3     
  22 N22            1.8303    13.4221     3.4190 N.ar    
  23 C23            2.5441    13.5062     2.3130 C.ar    
  24 C24            3.7186    14.2298     2.2808 C.ar    
  25 C25            4.1476    14.8789     3.4444 C.ar    
  26 C26            3.3585    14.7622     4.5947 C.ar    
  27 C27            2.1954    14.0220     4.5355 C.ar    
  28 C28            5.3985    15.6647     3.4583 C.2     
  29 N29            6.0323    15.8905     2.3543 N.2     
  30 O30            5.4388    15.5497     1.1147 O.3     
  31 C31            6.2501    15.8545    -0.0215 C.3     
  32 H32            4.4554    -1.3880     5.0365 H       
  33 H33            2.6180    -3.0142     5.2373 H       
  34 H34            0.3217    -2.3584     4.6391 H       
  35 H35            2.4976     2.3410     2.9927 H       
  36 H36            0.7737     1.9333     2.8183 H       
  37 H37            0.6963     4.6906     6.2211 H       
  38 H38            0.0723     7.0641     6.8381 H       
  39 H39           -0.4061     9.3790     6.1543 H       
  40 H40            0.2150     8.4593     2.1555 H       
  41 H41            0.7221     6.1130     2.6968 H       
  42 H42           -0.8378    10.4083     2.7734 H       
  43 H43           -1.1045    10.8026     4.4885 H       
  44 H44            1.3309    11.1631     4.7844 H       
  45 H45            1.5976    10.7687     3.0693 H       
  46 H46            0.1532    12.6723     2.4069 H       
  47 H47           -0.1135    13.0667     4.1221 H       
  48 H48            2.2049    13.0015     1.4205 H       
  49 H49            4.2982    14.2940     1.3718 H       
  50 H50            3.6535    15.2473     5.5134 H       
  51 H51            1.5798    13.9260     5.4176 H       
  52 H52            5.7835    16.0506     4.3906 H       
  53 H53            5.7250    15.5637    -0.9313 H       
  54 H54            6.4538    16.9250    -0.0459 H       
  55 H55            7.1903    15.3071     0.0462 H       
@<TRIPOS>BOND
   1    1    2 ar
   2    1    9 1
   3    1    6 ar
   4    2    3 ar
   5    2   32 1
   6    3    4 ar
   7    3   33 1
   8    4    5 ar
   9    4   34 1
  10    5    6 ar
  11    5   10 1
  12    6    7 1
  13    7    8 1
  14    7   35 1
  15    7   36 1
  16    8   11 1
  17   11   12 2
  18   12   13 1
  19   12   37 1
  20   13   14 ar
  21   13   18 ar
  22   14   15 ar
  23   14   38 1
  24   15   16 ar
  25   15   39 1
  26   16   17 ar
  27   16   19 1
  28   17   18 ar
  29   17   40 1
  30   18   41 1
  31   19   20 1
  32   19   42 1
  33   19   43 1
  34   20   21 1
  35   20   44 1
  36   20   45 1
  37   21   22 1
  38   21   46 1
  39   21   47 1
  40   22   23 ar
  41   22   27 ar
  42   23   24 ar
  43   23   48 1
  44   24   25 ar
  45   24   49 1
  46   25   26 ar
  47   25   28 1
  48   26   27 ar
  49   26   50 1
  50   27   51 1
  51   28   29 2
  52   28   52 1
  53   29   30 1
  54   30   31 1
  55   31   53 1
  56   31   54 1
  57   31   55 1

#	End of record

