#	Name: ASD03330423
#	Creating user name:	WinNT
#	Creation time:	15. 06. 2019 20:37

#	Modifying user name:	WinNT
#	Modification time:	15. 06. 2019 20:37

#	Program:	/corina/corina34_cracker 3.40 0067  02.08.2006

@<TRIPOS>MOLECULE
ASD03330423
  55   59    0    0    0
SMALL
NO_CHARGES


@<TRIPOS>ATOM
   1 C1            -0.0754     1.7181     0.0993 C.3     
   2 N2            -0.1545     0.2512     0.1375 N.3     
   3 C3             0.2684    -0.3392    -1.1453 C.3     
   4 C4             1.5921     0.2728    -1.5249 C.2     
   5 N5             2.0925     1.4065    -0.9529 N.pl3   
   6 C6             1.3938     2.1600     0.0920 C.3     
   7 C7             2.4962    -0.1441    -2.4452 C.2     
   8 N8             3.5324     0.7260    -2.4271 N.2     
   9 C9             3.2955     1.6590    -1.5318 C.2     
  10 C10            4.1884     2.7928    -1.2091 C.ar    
  11 C11            2.3727    -1.3312    -3.3094 C.2     
  12 O12            1.4481    -2.1053    -3.1509 O.2     
  13 C13            4.3361    -0.5736    -4.5687 C.3     
  14 N14            3.2843    -1.5590    -4.2756 N.am    
  15 C15           -1.5063    -0.1938     0.5016 C.3     
  16 C16            4.3858     3.1732     0.1189 C.ar    
  17 C17            5.2199     4.2309     0.4143 C.ar    
  18 C18            5.8621     4.9167    -0.6036 C.ar    
  19 C19            5.6714     4.5463    -1.9232 C.ar    
  20 C20            4.8424     3.4841    -2.2322 C.ar    
  21 F21            4.6564     3.1226    -3.5205 F       
  22 Cl22           6.9102     6.2470    -0.2222 Cl      
  23 C23            5.6906    -1.2902    -4.5601 C.3     
  24 N24            5.6404    -2.4365    -5.4774 N.3     
  25 C25            4.6511    -3.4289    -5.0364 C.3     
  26 C26            3.2540    -2.8000    -5.0646 C.3     
  27 C27            6.8908    -3.0123    -5.6205 C.ar    
  28 N28            7.0317    -4.0633    -6.4150 N.ar    
  29 N29            7.9195    -2.4962    -4.9642 N.ar    
  30 C30            9.1277    -3.0222    -5.0793 C.ar    
  31 C31            9.3095    -4.1256    -5.8982 C.ar    
  32 C32            8.2129    -4.6369    -6.5742 C.ar    
  33 H33           -0.5683     2.0841    -0.8013 H       
  34 H34           -0.5734     2.1307     0.9767 H       
  35 H35            0.3791    -1.4180    -1.0359 H       
  36 H36           -0.4728    -0.1202    -1.9139 H       
  37 H37            1.4558     3.2273    -0.1203 H       
  38 H38            1.8458     1.9503     1.0614 H       
  39 H39            4.1614    -0.1325    -5.5501 H       
  40 H40            4.3296     0.2063    -3.8072 H       
  41 H41           -2.2290     0.2334    -0.1936 H       
  42 H42           -1.5558    -1.2817     0.4542 H       
  43 H43           -1.7371     0.1366     1.5144 H       
  44 H44            3.8859     2.6402     0.9142 H       
  45 H45            5.3725     4.5257     1.4420 H       
  46 H46            6.1743     5.0851    -2.7126 H       
  47 H47            6.4695    -0.5996    -4.8833 H       
  48 H48            5.9102    -1.6407    -3.5516 H       
  49 H49            4.6762    -4.2894    -5.7050 H       
  50 H50            4.8852    -3.7496    -4.0213 H       
  51 H51            2.5321    -3.4920    -4.6309 H       
  52 H52            2.9753    -2.5729    -6.0936 H       
  53 H53            9.9624    -2.5969    -4.5420 H       
  54 H54           10.2854    -4.5745    -6.0104 H       
  55 H55            8.3207    -5.4958    -7.2201 H       
@<TRIPOS>BOND
   1    1    2 1
   2    1    6 1
   3    1   33 1
   4    1   34 1
   5    2    3 1
   6    2   15 1
   7    3    4 1
   8    3   35 1
   9    3   36 1
  10    4    5 1
  11    4    7 2
  12    5    6 1
  13    5    9 1
  14    6   37 1
  15    6   38 1
  16    7    8 1
  17    7   11 1
  18    8    9 2
  19    9   10 1
  20   10   16 ar
  21   10   20 ar
  22   11   12 2
  23   11   14 am
  24   13   14 1
  25   13   23 1
  26   13   39 1
  27   13   40 1
  28   14   26 1
  29   15   41 1
  30   15   42 1
  31   15   43 1
  32   16   17 ar
  33   16   44 1
  34   17   18 ar
  35   17   45 1
  36   18   19 ar
  37   18   22 1
  38   19   20 ar
  39   19   46 1
  40   20   21 1
  41   23   24 1
  42   23   47 1
  43   23   48 1
  44   24   25 1
  45   24   27 1
  46   25   26 1
  47   25   49 1
  48   25   50 1
  49   26   51 1
  50   26   52 1
  51   27   28 ar
  52   27   29 ar
  53   28   32 ar
  54   29   30 ar
  55   30   31 ar
  56   30   53 1
  57   31   32 ar
  58   31   54 1
  59   32   55 1

#	End of record

