#	Name: ASD01901189
#	Creating user name:	WinNT
#	Creation time:	15. 06. 2019 19:53

#	Modifying user name:	WinNT
#	Modification time:	15. 06. 2019 19:53

#	Program:	/corina/corina34_cracker 3.40 0067  02.08.2006

@<TRIPOS>MOLECULE
ASD01901189
  50   53    0    0    0
SMALL
NO_CHARGES


@<TRIPOS>ATOM
   1 C1            -0.0166     1.3750     0.0096 C.ar    
   2 C2             0.0021    -0.0041     0.0020 C.ar    
   3 C3             1.2078    -0.6830    -0.0131 C.ar    
   4 C4             2.4027     0.0149    -0.0208 C.ar    
   5 C5             2.3997     1.3941    -0.0129 C.ar    
   6 C6             1.1860     2.0866     0.0019 C.ar    
   7 C7             1.1748     3.5185     0.0093 C.1     
   8 C8             1.1655     4.6925     0.0153 C.1     
   9 C9             1.1543     6.1244     0.0226 C.ar    
  10 C10            2.3583     6.8345     0.0149 C.ar    
  11 C11            2.3436     8.2144     0.0221 C.ar    
  12 C12            1.1325     8.8988     0.0369 C.ar    
  13 C13           -0.0678     8.1953     0.0446 C.ar    
  14 C14           -0.0608     6.8154     0.0317 C.ar    
  15 N15            1.1215    10.3012     0.0446 N.am    
  16 C16            1.1055    10.9702    -1.1228 C.2     
  17 C17            1.1941    12.4757    -1.1295 C.3     
  18 C18            0.4697    13.0276     0.1005 C.3     
  19 N19            0.8781    12.2743     1.2877 N.am    
  20 C20            1.1214    10.9565     1.2173 C.2     
  21 O21            1.0204    10.3630    -2.1688 O.2     
  22 O22            1.3520    10.3418     2.2402 O.2     
  23 C23            0.8348    14.5023     0.2818 C.3     
  24 C24           -1.0199    12.8987    -0.0881 C.ar    
  25 C25           -1.8929    13.3361     0.8959 C.ar    
  26 C26           -3.2544    13.1971     0.6782 C.ar    
  27 N27           -3.6733    12.6550    -0.4542 N.ar    
  28 C28           -2.8138    12.2504    -1.3675 C.ar    
  29 N29           -1.5123    12.3716    -1.1973 N.ar    
  30 F30           -1.2416     8.8640     0.0590 F       
  31 F31            3.5068     8.9015     0.0151 F       
  32 C32            1.0177    12.9681     2.5704 C.3     
  33 H33           -0.9584     1.9035     0.0169 H       
  34 H34           -0.9266    -0.5554     0.0083 H       
  35 H35            1.2163    -1.7630    -0.0187 H       
  36 H36            3.3399    -0.5217    -0.0326 H       
  37 H37            3.3330     1.9375    -0.0185 H       
  38 H38            3.2989     6.3039     0.0038 H       
  39 H39           -0.9929     6.2700     0.0328 H       
  40 H40            2.2407    12.7790    -1.1023 H       
  41 H41            0.7248    12.8641    -2.0334 H       
  42 H42            1.9121    14.5957     0.4186 H       
  43 H43            0.5307    15.0631    -0.6020 H       
  44 H44            0.3215    14.8985     1.1579 H       
  45 H45           -1.5210    13.7743     1.8102 H       
  46 H46           -3.9641    13.5263     1.4228 H       
  47 H47           -3.1858    11.8115    -2.2815 H       
  48 H48            0.0667    12.9429     3.1025 H       
  49 H49            1.7824    12.4737     3.1695 H       
  50 H50            1.3078    14.0038     2.3937 H       
@<TRIPOS>BOND
   1    1    2 ar
   2    1    6 ar
   3    1   33 1
   4    2    3 ar
   5    2   34 1
   6    3    4 ar
   7    3   35 1
   8    4    5 ar
   9    4   36 1
  10    5    6 ar
  11    5   37 1
  12    6    7 1
  13    7    8 3
  14    8    9 1
  15    9   10 ar
  16    9   14 ar
  17   10   11 ar
  18   10   38 1
  19   11   12 ar
  20   11   31 1
  21   12   13 ar
  22   12   15 1
  23   13   14 ar
  24   13   30 1
  25   14   39 1
  26   15   16 am
  27   15   20 am
  28   16   17 1
  29   16   21 2
  30   17   18 1
  31   17   40 1
  32   17   41 1
  33   18   19 1
  34   18   23 1
  35   18   24 1
  36   19   20 am
  37   19   32 1
  38   20   22 2
  39   23   42 1
  40   23   43 1
  41   23   44 1
  42   24   25 ar
  43   24   29 ar
  44   25   26 ar
  45   25   45 1
  46   26   27 ar
  47   26   46 1
  48   27   28 ar
  49   28   29 ar
  50   28   47 1
  51   32   48 1
  52   32   49 1
  53   32   50 1

#	End of record

