#	Name: ASD01812986
#	Creating user name:	WinNT
#	Creation time:	15. 06. 2019 19:29

#	Modifying user name:	WinNT
#	Modification time:	15. 06. 2019 19:29

#	Program:	/corina/corina34_cracker 3.40 0067  02.08.2006

@<TRIPOS>MOLECULE
ASD01812986
  61   66    0    0    0
SMALL
NO_CHARGES


@<TRIPOS>ATOM
   1 N1             0.0024     1.3184    -0.2204 N.ar    
   2 C2             0.0314     0.0056    -0.3429 C.ar    
   3 C3             1.2335    -0.6846    -0.3647 C.ar    
   4 C4             2.4109     0.0201    -0.2565 C.ar    
   5 C5             2.3613     1.4129    -0.1277 C.ar    
   6 C6             1.1072     2.0395    -0.1133 C.ar    
   7 C7             3.8677    -0.3587    -0.2404 C.3     
   8 N8             4.6149     0.8970    -0.0963 N.am    
   9 C9             3.7394     1.9159    -0.0317 C.2     
  10 C10            6.0734     1.0197    -0.0327 C.3     
  11 C11            6.6240     1.1941    -1.4246 C.ar    
  12 O12            1.0259     3.3855     0.0104 O.3     
  13 O13            4.0443     3.0868     0.0885 O.2     
  14 C14            6.7709     2.4637    -1.9535 C.ar    
  15 C15            7.2747     2.6291    -3.2278 C.ar    
  16 C16            7.6355     1.5143    -3.9816 C.ar    
  17 C17            7.4853     0.2378    -3.4440 C.ar    
  18 C18            6.9858     0.0842    -2.1665 C.ar    
  19 C19           -0.2024     3.9618    -0.0794 C.ar    
  20 C20            8.1773     1.6860    -5.3527 C.2     
  21 C21           -1.0108     4.0603     1.0557 C.ar    
  22 C22           -2.2625     4.6470     0.9375 C.ar    
  23 C23           -2.7015     5.1361    -0.2740 C.ar    
  24 C24           -1.8955     5.0387    -1.3944 C.ar    
  25 C25           -0.6467     4.4548    -1.2939 C.ar    
  26 O26           -0.7706     3.6631     2.3363 O.3     
  27 C27           -2.0191     3.5633     3.0424 C.3     
  28 C28           -2.9107     4.5920     2.3074 C.3     
  29 C29           -2.6015     2.1540     2.9175 C.3     
  30 C30           -1.8432     3.9505     4.5121 C.3     
  31 N31            8.3721     2.8318    -5.9705 N.2     
  32 C32            8.5795     0.6520    -6.2202 C.2     
  33 C33            9.0115     1.2188    -7.3678 C.2     
  34 N34            8.8999     2.5583    -7.2388 N.pl3   
  35 C35            9.2624     3.5527    -8.2517 C.3     
  36 H36           -0.8964    -0.5407    -0.4273 H       
  37 H37            1.2459    -1.7599    -0.4647 H       
  38 H38            4.0746    -1.0170     0.6033 H       
  39 H39            4.1376    -0.8503    -1.1751 H       
  40 H40            6.3390     1.8853     0.5742 H       
  41 H41            6.4946     0.1193     0.4145 H       
  42 H42            6.4906     3.3271    -1.3684 H       
  43 H43            7.3887     3.6208    -3.6399 H       
  44 H44            7.7631    -0.6297    -4.0242 H       
  45 H45            6.8731    -0.9047    -1.7471 H       
  46 H46           -3.6759     5.5957    -0.3489 H       
  47 H47           -2.2395     5.4215    -2.3439 H       
  48 H48           -0.0166     4.3791    -2.1678 H       
  49 H49           -2.8684     5.5646     2.7976 H       
  50 H50           -3.9389     4.2369     2.2378 H       
  51 H51           -1.9125     1.4354     3.3613 H       
  52 H52           -3.5584     2.1088     3.4375 H       
  53 H53           -2.7486     1.9137     1.8645 H       
  54 H54           -1.4592     4.9686     4.5762 H       
  55 H55           -2.8055     3.8925     5.0208 H       
  56 H56           -1.1397     3.2662     4.9864 H       
  57 H57            8.5484    -0.4061    -6.0059 H       
  58 H58            9.3867     0.6933    -8.2335 H       
  59 H59           10.3037     3.8453    -8.1173 H       
  60 H60            9.1307     3.1240    -9.2452 H       
  61 H61            8.6223     4.4287    -8.1463 H       
@<TRIPOS>BOND
   1    1    2 ar
   2    1    6 ar
   3    2    3 ar
   4    2   36 1
   5    3    4 ar
   6    3   37 1
   7    4    7 1
   8    4    5 ar
   9    5    6 ar
  10    5    9 1
  11    6   12 1
  12    7    8 1
  13    7   38 1
  14    7   39 1
  15    8    9 am
  16    8   10 1
  17    9   13 2
  18   10   11 1
  19   10   40 1
  20   10   41 1
  21   11   14 ar
  22   11   18 ar
  23   12   19 1
  24   14   15 ar
  25   14   42 1
  26   15   16 ar
  27   15   43 1
  28   16   17 ar
  29   16   20 1
  30   17   18 ar
  31   17   44 1
  32   18   45 1
  33   19   21 ar
  34   19   25 ar
  35   20   32 1
  36   20   31 2
  37   21   26 1
  38   21   22 ar
  39   22   23 ar
  40   22   28 1
  41   23   24 ar
  42   23   46 1
  43   24   25 ar
  44   24   47 1
  45   25   48 1
  46   26   27 1
  47   27   28 1
  48   27   29 1
  49   27   30 1
  50   28   49 1
  51   28   50 1
  52   29   51 1
  53   29   52 1
  54   29   53 1
  55   30   54 1
  56   30   55 1
  57   30   56 1
  58   31   34 1
  59   32   33 2
  60   32   57 1
  61   33   34 1
  62   33   58 1
  63   34   35 1
  64   35   59 1
  65   35   60 1
  66   35   61 1

#	End of record

