#	Name: ASD01870198
#	Creating user name:	WinNT
#	Creation time:	15. 06. 2019 19:38

#	Modifying user name:	WinNT
#	Modification time:	15. 06. 2019 19:38

#	Program:	/corina/corina34_cracker 3.40 0067  02.08.2006

@<TRIPOS>MOLECULE
ASD01870198
  56   60    0    0    0
SMALL
NO_CHARGES


@<TRIPOS>ATOM
   1 C1             0.1965     1.2529     1.2439 C.ar    
   2 C2             0.1658    -0.1085     0.9497 C.ar    
   3 C3             1.2550    -0.7382     0.4284 C.ar    
   4 C4             2.4291    -0.0089     0.1814 C.ar    
   5 C5             2.4609     1.3782     0.4804 C.ar    
   6 C6             1.3163     1.9930     1.0183 C.ar    
   7 C7             3.5718    -0.6284    -0.3568 C.ar    
   8 C8             4.6958     0.0952    -0.5882 C.ar    
   9 C9             4.7432     1.4726    -0.2963 C.ar    
  10 C10            3.6304     2.1057     0.2340 C.ar    
  11 C11            5.8177     2.4734    -0.4478 C.2     
  12 N12            5.3952     3.6790    -0.0301 N.am    
  13 C13            4.0064     3.5532     0.4269 C.3     
  14 C14            6.1876     4.9112    -0.0312 C.3     
  15 C15            5.2662     6.1098    -0.2665 C.3     
  16 C16            4.2212     6.1764     0.8490 C.3     
  17 C17            4.9250     6.3314     2.1986 C.3     
  18 C18            5.8463     5.1328     2.4339 C.3     
  19 C19            6.8914     5.0661     1.3184 C.3     
  20 C20            3.5474    -2.1008    -0.6769 C.3     
  21 C21            2.9646    -2.3065    -2.0514 C.ar    
  22 C22            3.7841    -2.3166    -3.1623 C.ar    
  23 N23            3.2839    -2.4958    -4.3702 N.ar    
  24 C24            1.9877    -2.6718    -4.5654 C.ar    
  25 C25            1.1043    -2.6732    -3.4933 C.ar    
  26 C26            1.5985    -2.4935    -2.2134 C.ar    
  27 O27            6.9269     2.2403    -0.8874 O.2     
  28 O28            4.6088     5.9651    -1.5270 O.3     
  29 O29            1.5163    -2.8521    -5.8248 O.3     
  30 C30            2.4751    -2.8398    -6.8843 C.3     
  31 H31           -0.6825     1.7289     1.6529 H       
  32 H32           -0.7353    -0.6732     1.1382 H       
  33 H33            1.2160    -1.7944     0.2062 H       
  34 H34            1.3255     3.0477     1.2506 H       
  35 H35            5.5667    -0.3917    -1.0016 H       
  36 H36            3.3560     4.1923    -0.1703 H       
  37 H37            3.9327     3.8225     1.4805 H       
  38 H38            6.9321     4.8637    -0.8259 H       
  39 H39            5.8558     7.0266    -0.2673 H       
  40 H40            3.5648     7.0304     0.6814 H       
  41 H41            3.6316     5.2596     0.8498 H       
  42 H42            5.5145     7.2482     2.1978 H       
  43 H43            4.1805     6.3789     2.9933 H       
  44 H44            6.3478     5.2431     3.3954 H       
  45 H45            5.2568     4.2160     2.4347 H       
  46 H46            7.5478     4.2122     1.4860 H       
  47 H47            7.4809     5.9829     1.3176 H       
  48 H48            4.5631    -2.4953    -0.6502 H       
  49 H49            2.9355    -2.6225     0.0590 H       
  50 H50            4.8480    -2.1756    -3.0413 H       
  51 H51            0.0463    -2.8169    -3.6563 H       
  52 H52            0.9357    -2.4904    -1.3607 H       
  53 H53            4.0073     6.6909    -1.7426 H       
  54 H54            2.9885    -1.8784    -6.8987 H       
  55 H55            3.2013    -3.6372    -6.7265 H       
  56 H56            1.9668    -2.9945    -7.8361 H       
@<TRIPOS>BOND
   1    1    2 ar
   2    1    6 ar
   3    1   31 1
   4    2    3 ar
   5    2   32 1
   6    3    4 ar
   7    3   33 1
   8    4    5 ar
   9    4    7 ar
  10    5    6 ar
  11    5   10 ar
  12    6   34 1
  13    7    8 ar
  14    7   20 1
  15    8    9 ar
  16    8   35 1
  17    9   10 ar
  18    9   11 1
  19   10   13 1
  20   11   12 am
  21   11   27 2
  22   12   13 1
  23   12   14 1
  24   13   36 1
  25   13   37 1
  26   14   15 1
  27   14   19 1
  28   14   38 1
  29   15   16 1
  30   15   28 1
  31   15   39 1
  32   16   17 1
  33   16   40 1
  34   16   41 1
  35   17   18 1
  36   17   42 1
  37   17   43 1
  38   18   19 1
  39   18   44 1
  40   18   45 1
  41   19   46 1
  42   19   47 1
  43   20   21 1
  44   20   48 1
  45   20   49 1
  46   21   22 ar
  47   21   26 ar
  48   22   23 ar
  49   22   50 1
  50   23   24 ar
  51   24   25 ar
  52   24   29 1
  53   25   26 ar
  54   25   51 1
  55   26   52 1
  56   28   53 1
  57   29   30 1
  58   30   54 1
  59   30   55 1
  60   30   56 1

#	End of record

