#	Name: ASD03240497
#	Creating user name:	WinNT
#	Creation time:	15. 06. 2019 20:35

#	Modifying user name:	WinNT
#	Modification time:	15. 06. 2019 20:35

#	Program:	/corina/corina34_cracker 3.40 0067  02.08.2006

@<TRIPOS>MOLECULE
ASD03240497
  36   38    0    0    0
SMALL
NO_CHARGES


@<TRIPOS>ATOM
   1 C1             1.1898    -0.5090    -0.1352 C.ar    
   2 C2            -0.0484     0.0735     0.0663 C.ar    
   3 C3             2.3340     0.2613    -0.0850 C.ar    
   4 C4             2.2401     1.6278     0.1690 C.ar    
   5 C5             0.9906     2.2093     0.3712 C.ar    
   6 C6            -0.1473     1.4299     0.3184 C.ar    
   7 C7             3.4676     2.4613     0.2246 C.2     
   8 C8             3.5205     3.8036     0.4629 C.2     
   9 N9             4.8168     4.1730     0.4298 N.pl3   
  10 N10            5.5892     3.0357     0.1650 N.2     
  11 C11            4.7896     2.0089     0.0469 C.2     
  12 C12           -1.2942    -0.7726     0.0103 C.3     
  13 C13           -1.3200    -1.5437    -1.2842 C.2     
  14 C14           -1.2996    -1.7360     1.1691 C.ar    
  15 C15           -2.2104    -1.5757     2.1967 C.ar    
  16 C16           -2.2159    -2.4590     3.2597 C.ar    
  17 C17           -1.3095    -3.5037     3.2954 C.ar    
  18 C18           -0.3982    -3.6636     2.2667 C.ar    
  19 C19           -0.3975    -2.7830     1.2014 C.ar    
  20 Cl20          -1.3153    -4.6132     4.6305 Cl      
  21 N21           -2.3479    -2.3724    -1.5545 N.am    
  22 O22           -0.4158    -1.4186    -2.0827 O.2     
  23 H23            1.2619    -1.5693    -0.3276 H       
  24 H24            3.3004    -0.1945    -0.2421 H       
  25 H25            0.9123     3.2683     0.5685 H       
  26 H26           -1.1166     1.8798     0.4747 H       
  27 H27            2.6768     4.4528     0.6451 H       
  28 H28            5.1557     5.0716     0.5657 H       
  29 H29            5.0895     0.9919    -0.1583 H       
  30 H30           -2.1727    -0.1300     0.0680 H       
  31 H31           -2.9176    -0.7600     2.1689 H       
  32 H32           -2.9272    -2.3335     4.0626 H       
  33 H33            0.3095    -4.4789     2.2940 H       
  34 H34            0.3139    -2.9077     0.3984 H       
  35 H35           -3.0711    -2.4725    -0.9159 H       
  36 H36           -2.3645    -2.8688    -2.3878 H       
@<TRIPOS>BOND
   1    1    2 ar
   2    1    3 ar
   3    1   23 1
   4    2   12 1
   5    2    6 ar
   6    3    4 ar
   7    3   24 1
   8    4    5 ar
   9    4    7 1
  10    5    6 ar
  11    5   25 1
  12    6   26 1
  13    7    8 2
  14    7   11 1
  15    8    9 1
  16    8   27 1
  17    9   10 1
  18    9   28 1
  19   10   11 2
  20   11   29 1
  21   12   13 1
  22   12   14 1
  23   12   30 1
  24   13   21 am
  25   13   22 2
  26   14   15 ar
  27   14   19 ar
  28   15   16 ar
  29   15   31 1
  30   16   17 ar
  31   16   32 1
  32   17   18 ar
  33   17   20 1
  34   18   19 ar
  35   18   33 1
  36   19   34 1
  37   21   35 1
  38   21   36 1

#	End of record

