#	Name: ASD08070533
#	Creating user name:	WinNT
#	Creation time:	15. 06. 2019 21:15

#	Modifying user name:	WinNT
#	Modification time:	15. 06. 2019 21:15

#	Program:	/corina/corina34_cracker 3.40 0067  02.08.2006

@<TRIPOS>MOLECULE
ASD08070533
  41   42    0    0    0
SMALL
NO_CHARGES


@<TRIPOS>ATOM
   1 N1            -0.0167     1.3772     0.0096 N.pl3   
   2 C2             0.0021    -0.0041     0.0020 C.2     
   3 C3             1.2915    -0.4320    -0.0126 C.2     
   4 C4             2.1255     0.7122    -0.0144 C.ar    
   5 C5             3.5151     0.8901    -0.0267 C.ar    
   6 C6             4.0380     2.1503    -0.0249 C.ar    
   7 C7             3.2049     3.2621    -0.0110 C.ar    
   8 C8             1.8363     3.1134     0.0012 C.ar    
   9 C9             1.2787     1.8377    -0.0003 C.ar    
  10 C10           -1.1845    -0.8728     0.0087 C.2     
  11 O11           -1.0529    -2.0821     0.0009 O.2     
  12 N12           -2.4176    -0.3292     0.0233 N.am    
  13 C13           -5.6547     0.5916     2.7525 C.3     
  14 C14           -4.4768    -0.1587     2.1276 C.3     
  15 C15           -4.7776    -0.4443     0.6549 C.3     
  16 C16           -3.5997    -1.1946     0.0300 C.3     
  17 C17           -3.9506    -1.5896    -1.4059 C.3     
  18 C18           -2.8249    -2.4463    -1.9888 C.3     
  19 C19           -3.1758    -2.8413    -3.4246 C.3     
  20 H20           -0.8129     1.9312     0.0166 H       
  21 H21            1.6212    -1.4604    -0.0212 H       
  22 H22            4.1707     0.0319    -0.0371 H       
  23 H23            5.1096     2.2848    -0.0340 H       
  24 H24            3.6352     4.2527    -0.0095 H       
  25 H25            1.1971     3.9839     0.0123 H       
  26 H26           -2.5225     0.6351     0.0295 H       
  27 H27           -5.4404     0.7950     3.8017 H       
  28 H28           -5.8078     1.5324     2.2239 H       
  29 H29           -6.5550    -0.0183     2.6772 H       
  30 H30           -3.5765     0.4511     2.2029 H       
  31 H31           -4.3236    -1.0996     2.6562 H       
  32 H32           -5.6779    -1.0541     0.5796 H       
  33 H33           -4.9307     0.4965     0.1262 H       
  34 H34           -3.3899    -2.0916     0.6126 H       
  35 H35           -4.8798    -2.1594    -1.4092 H       
  36 H36           -4.0733    -0.6909    -2.0103 H       
  37 H37           -1.8957    -1.8766    -1.9855 H       
  38 H38           -2.7022    -3.3451    -1.3844 H       
  39 H39           -3.2986    -1.9426    -4.0290 H       
  40 H40           -2.3739    -3.4517    -3.8399 H       
  41 H41           -4.1051    -3.4111    -3.4279 H       
@<TRIPOS>BOND
   1    1    2 1
   2    1    9 1
   3    1   20 1
   4    2    3 2
   5    2   10 1
   6    3    4 1
   7    3   21 1
   8    4    5 ar
   9    4    9 ar
  10    5    6 ar
  11    5   22 1
  12    6    7 ar
  13    6   23 1
  14    7    8 ar
  15    7   24 1
  16    8    9 ar
  17    8   25 1
  18   10   11 2
  19   10   12 am
  20   12   16 1
  21   12   26 1
  22   13   14 1
  23   13   27 1
  24   13   28 1
  25   13   29 1
  26   14   15 1
  27   14   30 1
  28   14   31 1
  29   15   16 1
  30   15   32 1
  31   15   33 1
  32   16   17 1
  33   16   34 1
  34   17   18 1
  35   17   35 1
  36   17   36 1
  37   18   19 1
  38   18   37 1
  39   18   38 1
  40   19   39 1
  41   19   40 1
  42   19   41 1

#	End of record

