#	Name: ASD01200124
#	Creating user name:	WinNT
#	Creation time:	15. 06. 2019 19:08

#	Modifying user name:	WinNT
#	Modification time:	15. 06. 2019 19:08

#	Program:	/corina/corina34_cracker 3.40 0067  02.08.2006

@<TRIPOS>MOLECULE
ASD01200124
  47   50    0    0    0
SMALL
NO_CHARGES


@<TRIPOS>ATOM
   1 C1             0.0951     1.6113     0.1191 C.ar    
   2 C2             0.0286     0.2296     0.1326 C.ar    
   3 C3             1.1898    -0.5241     0.0845 C.ar    
   4 C4             2.4128     0.1019     0.0233 C.ar    
   5 C5             2.4915     1.4968     0.0091 C.ar    
   6 C6             1.3170     2.2494     0.0578 C.ar    
   7 C7             3.8317    -0.4059    -0.0385 C.3     
   8 N8             4.6914     0.7822    -0.0872 N.am    
   9 C9             3.9149     1.8791    -0.0596 C.2     
  10 O10            4.3266     3.0225    -0.0868 O.2     
  11 O11            4.1278    -1.1788     1.1264 O.3     
  12 C12            6.1548     0.7742    -0.1548 C.3     
  13 C13            6.5906     0.6369    -1.5909 C.ar    
  14 C14            6.7917     1.7656    -2.3631 C.ar    
  15 C15            7.1914     1.6396    -3.6804 C.ar    
  16 C16            7.3904     0.3849    -4.2253 C.ar    
  17 C17            7.1902    -0.7439    -3.4528 C.ar    
  18 C18            6.7947    -0.6177    -2.1342 C.ar    
  19 C19            3.9185    -0.4809     2.3557 C.3     
  20 C20            4.1437    -1.4211     3.5117 C.2     
  21 O21            4.4530    -2.5751     3.3034 O.2     
  22 N22            4.0015    -0.9794     4.7771 N.am    
  23 C23            4.3123    -1.8173     5.8469 C.ar    
  24 N24            4.8514    -3.0037     5.6154 N.ar    
  25 C25            5.1611    -3.8269     6.5988 C.ar    
  26 C26            4.9315    -3.4763     7.9144 C.ar    
  27 C27            4.3673    -2.2403     8.2000 C.ar    
  28 C28            4.0584    -1.3968     7.1476 C.ar    
  29 H29           -0.8140     2.1934     0.1522 H       
  30 H30           -0.9313    -0.2629     0.1810 H       
  31 H31            1.1348    -1.6026     0.0955 H       
  32 H32            1.3645     3.3283     0.0472 H       
  33 H33            3.9750    -1.0089    -0.9352 H       
  34 H34            6.5425     1.7069     0.2549 H       
  35 H35            6.5407    -0.0650     0.4239 H       
  36 H36            6.6362     2.7459    -1.9374 H       
  37 H37            7.3478     2.5214    -4.2840 H       
  38 H38            7.7020     0.2864    -5.2547 H       
  39 H39            7.3454    -1.7242    -3.8786 H       
  40 H40            6.6383    -1.4996    -1.5307 H       
  41 H41            4.6175     0.3527     2.4237 H       
  42 H42            2.8969    -0.1022     2.3891 H       
  43 H43            3.6828    -0.0784     4.9433 H       
  44 H44            5.5995    -4.7875     6.3719 H       
  45 H45            5.1878    -4.1567     8.7131 H       
  46 H46            4.1777    -1.9423     9.2206 H       
  47 H47            3.6188    -0.4280     7.3336 H       
@<TRIPOS>BOND
   1    1    2 ar
   2    1    6 ar
   3    1   29 1
   4    2    3 ar
   5    2   30 1
   6    3    4 ar
   7    3   31 1
   8    4    5 ar
   9    4    7 1
  10    5    6 ar
  11    5    9 1
  12    6   32 1
  13    7    8 1
  14    7   11 1
  15    7   33 1
  16    8    9 am
  17    8   12 1
  18    9   10 2
  19   11   19 1
  20   12   13 1
  21   12   34 1
  22   12   35 1
  23   13   14 ar
  24   13   18 ar
  25   14   15 ar
  26   14   36 1
  27   15   16 ar
  28   15   37 1
  29   16   17 ar
  30   16   38 1
  31   17   18 ar
  32   17   39 1
  33   18   40 1
  34   19   20 1
  35   19   41 1
  36   19   42 1
  37   20   21 2
  38   20   22 am
  39   22   23 1
  40   22   43 1
  41   23   24 ar
  42   23   28 ar
  43   24   25 ar
  44   25   26 ar
  45   25   44 1
  46   26   27 ar
  47   26   45 1
  48   27   28 ar
  49   27   46 1
  50   28   47 1

#	End of record

