#	Name: ASD01230158
#	Creating user name:	WinNT
#	Creation time:	15. 06. 2019 19:11

#	Modifying user name:	WinNT
#	Modification time:	15. 06. 2019 19:11

#	Program:	/corina/corina34_cracker 3.40 0067  02.08.2006

@<TRIPOS>MOLECULE
ASD01230158
  41   44    0    0    0
SMALL
NO_CHARGES


@<TRIPOS>ATOM
   1 C1             0.2076     1.4970     0.0038 C.3     
   2 C2             0.1096    -0.0068    -0.0010 C.2     
   3 C3             0.0066    -0.6836    -1.1794 C.2     
   4 C4            -0.0834    -2.0876    -1.1650 C.2     
   5 N5            -0.1839    -2.7508    -2.3156 N.2     
   6 C6            -0.2707    -4.0714    -2.3439 C.2     
   7 C7            -0.3828    -4.7904    -3.6636 C.3     
   8 N8            -1.7866    -4.8291    -4.0809 N.pl3   
   9 N9            -2.7132    -5.8306    -3.7637 N.2     
  10 C10           -3.8587    -5.5173    -4.3128 C.2     
  11 C11           -3.6995    -4.3077    -4.9968 C.2     
  12 C12           -2.4170    -3.9032    -4.8341 C.2     
  13 Cl13          -1.7102    -2.4554    -5.4807 Cl      
  14 C14           -5.1303    -6.3213    -4.2240 C.3     
  15 F15           -4.9359    -7.4078    -3.3645 F       
  16 F16           -6.1593    -5.5132    -3.7288 F       
  17 F17           -5.4759    -6.7891    -5.4963 F       
  18 C18           -0.2582    -4.7910    -1.1650 C.2     
  19 C19           -0.1528    -4.1010     0.0482 C.2     
  20 O20           -0.1390    -4.7078     1.1075 O.2     
  21 N21           -0.0662    -2.7537     0.0286 N.am    
  22 C22            0.0383    -2.0680     1.2006 C.2     
  23 C23            0.1295    -0.7191     1.2063 C.2     
  24 C24            0.0565    -2.8215     2.5056 C.3     
  25 H25           -0.8314    -3.4174     2.7168 H       
  26 C26            0.7639    -2.1630     3.6917 C.3     
  27 C27            1.4028    -3.3638     2.9895 C.3     
  28 H28            2.2754    -3.1756     2.3640 H       
  29 C29            1.3998    -4.6501     3.7051 C.1     
  30 N30            1.3975    -5.6429     4.2573 N.1     
  31 H31            1.2552     1.7931    -0.0512 H       
  32 H32           -0.3292     1.8989    -0.8555 H       
  33 H33           -0.2324     1.8868     0.9218 H       
  34 H34           -0.0061    -0.1467    -2.1164 H       
  35 H35            0.2053    -4.2639    -4.4153 H       
  36 H36           -0.0075    -5.8081    -3.5560 H       
  37 H37           -4.4646    -3.7866    -5.5531 H       
  38 H38           -0.3290    -5.8686    -1.1790 H       
  39 H39            0.2154    -0.1889     2.1433 H       
  40 H40            1.2162    -1.1848     3.5282 H       
  41 H41            0.3416    -2.3261     4.6833 H       
@<TRIPOS>BOND
   1    1    2 1
   2    1   31 1
   3    1   32 1
   4    1   33 1
   5    2   23 1
   6    2    3 2
   7    3    4 1
   8    3   34 1
   9    4   21 1
  10    4    5 2
  11    5    6 1
  12    6    7 1
  13    6   18 2
  14    7    8 1
  15    7   35 1
  16    7   36 1
  17    8   12 1
  18    8    9 1
  19    9   10 2
  20   10   11 1
  21   10   14 1
  22   11   12 2
  23   11   37 1
  24   12   13 1
  25   14   15 1
  26   14   16 1
  27   14   17 1
  28   18   19 1
  29   18   38 1
  30   19   20 2
  31   19   21 am
  32   21   22 1
  33   22   23 2
  34   22   24 1
  35   23   39 1
  36   24   25 1
  37   24   27 1
  38   24   26 1
  39   26   27 1
  40   26   40 1
  41   26   41 1
  42   27   28 1
  43   27   29 1
  44   29   30 3

#	End of record

