#	Name: ASD07300815
#	Creating user name:	WinNT
#	Creation time:	15. 06. 2019 21:10

#	Modifying user name:	WinNT
#	Modification time:	15. 06. 2019 21:10

#	Program:	/corina/corina34_cracker 3.40 0067  02.08.2006

@<TRIPOS>MOLECULE
ASD07300815
  49   52    0    0    0
SMALL
NO_CHARGES


@<TRIPOS>ATOM
   1 C1            -0.0173     1.4133    -0.0101 C.2     
   2 C2             0.0021    -0.0041     0.0020 C.2     
   3 N3             1.1763     2.0865    -0.0173 N.pl3   
   4 N4             1.1569    -0.6390     0.0061 N.2     
   5 C5             2.3148     0.0278    -0.0010 C.2     
   6 C6             2.3463     1.3763    -0.0126 C.2     
   7 N7            -0.9999     2.3007    -0.0113 N.2     
   8 C8            -0.4910     3.5279    -0.0253 C.2     
   9 C9             0.8846     3.4244    -0.0284 C.2     
  10 N10           -1.1861    -0.7177     0.0100 N.pl3   
  11 C11           -1.1896    -2.1845    -0.1073 C.3     
  12 C12           -2.0522    -2.7579     1.0227 C.3     
  13 O13           -3.3301    -2.1171     1.0109 O.3     
  14 C14           -3.2811    -0.7092     1.2547 C.3     
  15 C15           -2.4811    -0.0314     0.1422 C.3     
  16 C16            2.6174     6.6536    -0.8714 C.ar    
  17 C17            1.6837     5.6302    -0.8962 C.ar    
  18 C18            1.8533     4.5385    -0.0384 C.ar    
  19 C19            2.9685     4.5312     0.8124 C.ar    
  20 C20            3.8481     5.5896     0.7728 C.ar    
  21 N21            3.6551     6.6039    -0.0511 N.ar    
  22 O22            2.4694     7.7166    -1.7018 O.3     
  23 C23            3.4645     8.7396    -1.6297 C.3     
  24 C24            4.5928     8.4237    -2.6136 C.3     
  25 C25            2.8369    10.0878    -1.9892 C.3     
  26 C26           -1.2804     4.8116    -0.0312 C.3     
  27 H27            3.2435    -0.5235     0.0030 H       
  28 H28            3.2936     1.8949    -0.0185 H       
  29 H29           -1.6073    -2.4747    -1.0714 H       
  30 H30           -0.1709    -2.5622    -0.0194 H       
  31 H31           -2.1812    -3.8300     0.8742 H       
  32 H32           -1.5638    -2.5785     1.9805 H       
  33 H33           -4.2942    -0.3074     1.2730 H       
  34 H34           -2.7971    -0.5224     2.2133 H       
  35 H35           -2.3172     1.0161     0.3953 H       
  36 H36           -3.0310    -0.1011    -0.7963 H       
  37 H37            0.8383     5.6749    -1.5668 H       
  38 H38            3.1346     3.7066     1.4897 H       
  39 H39            4.7087     5.5907     1.4254 H       
  40 H40            3.8669     8.7844    -0.6177 H       
  41 H41            5.0400     7.4632    -2.3574 H       
  42 H42            4.1905     8.3789    -3.6256 H       
  43 H43            5.3519     9.2041    -2.5586 H       
  44 H44            2.0330    10.3128    -1.2883 H       
  45 H45            3.5959    10.8682    -1.9342 H       
  46 H46            2.4345    10.0430    -3.0012 H       
  47 H47           -1.4636     5.1303     0.9949 H       
  48 H48           -0.7162     5.5827    -0.5559 H       
  49 H49           -2.2324     4.6504    -0.5370 H       
@<TRIPOS>BOND
   1    1    2 1
   2    1    3 1
   3    1    7 2
   4    2    4 2
   5    2   10 1
   6    3    6 1
   7    3    9 1
   8    4    5 1
   9    5    6 2
  10    5   27 1
  11    6   28 1
  12    7    8 1
  13    8    9 2
  14    8   26 1
  15    9   18 1
  16   10   11 1
  17   10   15 1
  18   11   12 1
  19   11   29 1
  20   11   30 1
  21   12   13 1
  22   12   31 1
  23   12   32 1
  24   13   14 1
  25   14   15 1
  26   14   33 1
  27   14   34 1
  28   15   35 1
  29   15   36 1
  30   16   17 ar
  31   16   21 ar
  32   16   22 1
  33   17   18 ar
  34   17   37 1
  35   18   19 ar
  36   19   20 ar
  37   19   38 1
  38   20   21 ar
  39   20   39 1
  40   22   23 1
  41   23   24 1
  42   23   25 1
  43   23   40 1
  44   24   41 1
  45   24   42 1
  46   24   43 1
  47   25   44 1
  48   25   45 1
  49   25   46 1
  50   26   47 1
  51   26   48 1
  52   26   49 1

#	End of record

