#	Name: ASD03540280
#	Creating user name:	WinNT
#	Creation time:	15. 06. 2019 20:42

#	Modifying user name:	WinNT
#	Modification time:	15. 06. 2019 20:42

#	Program:	/corina/corina34_cracker 3.40 0067  02.08.2006

@<TRIPOS>MOLECULE
ASD03540280
  61   64    0    0    0
SMALL
NO_CHARGES


@<TRIPOS>ATOM
   1 C1             3.1834    -8.8699    -1.6893 C.2     
   2 C2             2.4348    -7.6709    -1.2600 C.ar    
   3 C3             1.0411    -7.7055    -1.1801 C.ar    
   4 C4             0.3484    -6.5826    -0.7781 C.ar    
   5 C5             1.0315    -5.4233    -0.4548 C.ar    
   6 C6             2.4122    -5.3819    -0.5322 C.ar    
   7 C7             3.1179    -6.4998    -0.9269 C.ar    
   8 O8             2.5973    -9.9175    -1.8754 O.2     
   9 O9             4.5151    -8.8001    -1.8798 O.3     
  10 C10            0.2954    -8.9668    -1.5327 C.3     
  11 C11            0.2679    -4.2001    -0.0168 C.3     
  12 C12           -2.1421    -4.1946     0.2652 C.2     
  13 N13           -3.2822    -4.5384     0.8812 N.am    
  14 C14           -3.2778    -5.3455     2.0050 C.2     
  15 C15           -2.0642    -5.8064     2.5011 C.2     
  16 C16           -0.8340    -5.3987     1.7860 C.2     
  17 N17           -0.9419    -4.6105     0.7003 N.am    
  18 C18           -2.2075    -6.6081     3.6359 C.2     
  19 C19           -3.4791    -6.7827     4.0326 C.2     
  20 S20           -4.5702    -5.9207     2.9626 S.3     
  21 O21            0.2579    -5.7709     2.1734 O.2     
  22 O22           -2.1971    -3.4874    -0.7222 O.2     
  23 C23            1.1463    -3.3542     0.9072 C.3     
  24 C24           -3.8945    -7.5776     5.1907 C.2     
  25 N25           -5.2019    -7.6861     5.4996 N.am    
  26 O26           -3.0590    -8.1402     5.8740 O.2     
  27 C27           -5.6174    -8.4811     6.6579 C.3     
  28 C28           -7.1186    -8.4406     6.7826 C.ar    
  29 C29           -7.8902    -9.3932     6.1430 C.ar    
  30 C30           -9.2666    -9.3583     6.2557 C.ar    
  31 C31           -9.8746    -8.3663     7.0114 C.ar    
  32 C32           -9.0982    -7.4117     7.6522 C.ar    
  33 C33           -7.7219    -7.4544     7.5409 C.ar    
  34 O34          -11.2285    -8.3296     7.1235 O.3     
  35 C35          -11.7854    -7.2802     7.9175 C.3     
  36 C36            5.1854   -10.0172    -2.3016 C.3     
  37 H37           -0.7295    -6.6080    -0.7158 H       
  38 H38            2.9391    -4.4737    -0.2791 H       
  39 H39            4.1960    -6.4677    -0.9823 H       
  40 H40            0.2798    -9.6328    -0.6701 H       
  41 H41           -0.7266    -8.7170    -1.8176 H       
  42 H42            0.7939    -9.4627    -2.3657 H       
  43 H43           -0.0101    -3.6127    -0.8919 H       
  44 H44           -4.1272    -4.2144     0.5322 H       
  45 H45           -1.3674    -7.0505     4.1505 H       
  46 H46            0.5939    -2.4696     1.2240 H       
  47 H47            1.4243    -3.9417     1.7823 H       
  48 H48            2.0464    -3.0489     0.3737 H       
  49 H49           -5.8678    -7.2378     4.9551 H       
  50 H50           -5.2914    -9.5129     6.5262 H       
  51 H51           -5.1666    -8.0702     7.5612 H       
  52 H52           -7.4165   -10.1650     5.5545 H       
  53 H53           -9.8689   -10.1023     5.7556 H       
  54 H54           -9.5691    -6.6385     8.2410 H       
  55 H55           -7.1167    -6.7143     8.0434 H       
  56 H56          -11.4091    -7.3575     8.9376 H       
  57 H57          -11.5001    -6.3158     7.4971 H       
  58 H58          -12.8720    -7.3667     7.9236 H       
  59 H59            5.0373   -10.7926    -1.5500 H       
  60 H60            4.7704   -10.3494    -3.2532 H       
  61 H61            6.2516    -9.8231    -2.4181 H       
@<TRIPOS>BOND
   1    1    2 1
   2    1    8 2
   3    1    9 1
   4    2    3 ar
   5    2    7 ar
   6    3    4 ar
   7    3   10 1
   8    4    5 ar
   9    4   37 1
  10    5    6 ar
  11    5   11 1
  12    6    7 ar
  13    6   38 1
  14    7   39 1
  15    9   36 1
  16   10   40 1
  17   10   41 1
  18   10   42 1
  19   11   17 1
  20   11   23 1
  21   11   43 1
  22   12   13 am
  23   12   17 am
  24   12   22 2
  25   13   14 1
  26   13   44 1
  27   14   15 2
  28   14   20 1
  29   15   16 1
  30   15   18 1
  31   16   17 am
  32   16   21 2
  33   18   19 2
  34   18   45 1
  35   19   20 1
  36   19   24 1
  37   23   46 1
  38   23   47 1
  39   23   48 1
  40   24   25 am
  41   24   26 2
  42   25   27 1
  43   25   49 1
  44   27   28 1
  45   27   50 1
  46   27   51 1
  47   28   29 ar
  48   28   33 ar
  49   29   30 ar
  50   29   52 1
  51   30   31 ar
  52   30   53 1
  53   31   32 ar
  54   31   34 1
  55   32   33 ar
  56   32   54 1
  57   33   55 1
  58   34   35 1
  59   35   56 1
  60   35   57 1
  61   35   58 1
  62   36   59 1
  63   36   60 1
  64   36   61 1

#	End of record

