#	Name: ASD09890106
#	Creating user name:	WinNT
#	Creation time:	15. 06. 2019 21:24

#	Modifying user name:	WinNT
#	Modification time:	15. 06. 2019 21:24

#	Program:	/corina/corina34_cracker 3.40 0067  02.08.2006

@<TRIPOS>MOLECULE
ASD09890106
  55   59    0    0    0
SMALL
NO_CHARGES


@<TRIPOS>ATOM
   1 C1            -0.0176     1.3672     0.0647 C.2     
   2 N2            -0.0056    -0.0001     0.0346 N.pl3   
   3 C3            -1.2997    -0.4350     0.1191 C.2     
   4 N4            -2.0758     0.6195     0.1980 N.2     
   5 N5            -1.2619     1.7594     0.1686 N.2     
   6 S6            -1.8305    -2.1151     0.1217 S.3     
   7 C7            -3.6339    -1.9731     0.2555 C.3     
   8 C8             1.1331    -0.8132    -0.0661 C.ar    
   9 C9             2.0790    -0.8330     0.9547 C.ar    
  10 C10            3.1869    -1.6525     0.8098 C.ar    
  11 C11            3.3156    -2.4174    -0.3343 C.ar    
  12 N12            2.4012    -2.3754    -1.2837 N.ar    
  13 C13            1.3301    -1.6140    -1.1828 C.ar    
  14 C14           -4.2817    -3.3646     0.1464 C.3     
  15 C15           -5.0376    -3.6038     1.4697 C.3     
  16 C16           -5.3139    -2.1796     2.0122 C.3     
  17 C17           -4.0187    -1.4154     1.6414 C.3     
  18 O18            1.0701     2.1752     0.0035 O.3     
  19 C19            0.8650     3.5147    -0.0919 C.ar    
  20 C20           -0.4191     4.0073    -0.2838 C.ar    
  21 C21           -0.6302     5.3664    -0.3810 C.ar    
  22 C22            0.4468     6.2462    -0.2864 C.ar    
  23 C23            1.7346     5.7490    -0.0937 C.ar    
  24 C24            1.9391     4.3892     0.0084 C.ar    
  25 C25            0.2228     7.7090    -0.3911 C.ar    
  26 C26            1.2987     8.5898    -0.2966 C.ar    
  27 C27            1.0846     9.9496    -0.3952 C.ar    
  28 C28           -0.1950    10.4388    -0.5869 C.ar    
  29 C29           -1.2666     9.5692    -0.6813 C.ar    
  30 C30           -1.0634     8.2072    -0.5899 C.ar    
  31 C31           -0.4225    11.9248    -0.6927 C.3     
  32 F32           -0.3229    12.3176    -2.0317 F       
  33 F33           -1.6975    12.2370    -0.2088 F       
  34 F34            0.5416    12.5993     0.0641 F       
  35 H35           -4.0161    -1.3207    -0.5296 H       
  36 H36            1.9528    -0.2243     1.8379 H       
  37 H37            3.9412    -1.6929     1.5817 H       
  38 H38            4.1771    -3.0580    -0.4525 H       
  39 H39            0.6027    -1.6063    -1.9811 H       
  40 H40           -4.9790    -3.3872    -0.6912 H       
  41 H41           -3.5125    -4.1252     0.0130 H       
  42 H42           -5.9741    -4.1298     1.2845 H       
  43 H43           -4.4160    -4.1641     2.1682 H       
  44 H44           -6.1783    -1.7383     1.5161 H       
  45 H45           -5.4553    -2.1985     3.0928 H       
  46 H46           -3.2325    -1.6222     2.3676 H       
  47 H47           -4.2117    -0.3443     1.5814 H       
  48 H48           -1.2531     3.3251    -0.3574 H       
  49 H49           -1.6291     5.7489    -0.5307 H       
  50 H50            2.5710     6.4284    -0.0204 H       
  51 H51            2.9367     4.0034     0.1577 H       
  52 H52            2.2980     8.2089    -0.1463 H       
  53 H53            1.9176    10.6331    -0.3221 H       
  54 H54           -2.2635     9.9566    -0.8310 H       
  55 H55           -1.9007     7.5291    -0.6638 H       
@<TRIPOS>BOND
   1    1    2 1
   2    1   18 1
   3    1    5 2
   4    2    3 1
   5    2    8 1
   6    3    4 2
   7    3    6 1
   8    4    5 1
   9    6    7 1
  10    7   14 1
  11    7   17 1
  12    7   35 1
  13    8    9 ar
  14    8   13 ar
  15    9   10 ar
  16    9   36 1
  17   10   11 ar
  18   10   37 1
  19   11   12 ar
  20   11   38 1
  21   12   13 ar
  22   13   39 1
  23   14   15 1
  24   14   40 1
  25   14   41 1
  26   15   16 1
  27   15   42 1
  28   15   43 1
  29   16   17 1
  30   16   44 1
  31   16   45 1
  32   17   46 1
  33   17   47 1
  34   18   19 1
  35   19   20 ar
  36   19   24 ar
  37   20   21 ar
  38   20   48 1
  39   21   22 ar
  40   21   49 1
  41   22   23 ar
  42   22   25 1
  43   23   24 ar
  44   23   50 1
  45   24   51 1
  46   25   26 ar
  47   25   30 ar
  48   26   27 ar
  49   26   52 1
  50   27   28 ar
  51   27   53 1
  52   28   29 ar
  53   28   31 1
  54   29   30 ar
  55   29   54 1
  56   30   55 1
  57   31   32 1
  58   31   33 1
  59   31   34 1

#	End of record

