#	Name: ASD00840254
#	Creating user name:	WinNT
#	Creation time:	15. 06. 2019 18:38

#	Modifying user name:	WinNT
#	Modification time:	15. 06. 2019 18:38

#	Program:	/corina/corina34_cracker 3.40 0067  02.08.2006

@<TRIPOS>MOLECULE
ASD00840254
  82   87    0    0    0
SMALL
NO_CHARGES


@<TRIPOS>ATOM
   1 F1            -0.1148    -3.1508     4.7167 F       
   2 N2            -0.0064     1.3225     0.0259 N.ar    
   3 C3             0.0082     0.0002     0.0130 C.ar    
   4 C4             1.2113    -0.6942    -0.0055 C.ar    
   5 C5             2.3987     0.0164    -0.0103 C.ar    
   6 C6             2.3404     1.4034     0.0037 C.ar    
   7 C7             1.1092     2.0274     0.0218 C.ar    
   8 C8             1.2231    -2.2011    -0.0196 C.3     
   9 C9             0.4753    -2.7260    -1.2267 C.2     
  10 N10            2.5997    -2.7023    -0.0108 N.am    
  11 C11            3.4466    -2.3635    -1.0029 C.2     
  12 N12            4.7401    -2.7371    -0.9417 N.am    
  13 O13            3.0437    -1.7208    -1.9532 O.2     
  14 C14            5.2740    -3.4169     0.2482 C.3     
  15 C15            6.0034    -4.6868    -0.2029 C.3     
  16 N16            7.0040    -4.3378    -1.2202 N.3     
  17 C17            6.3695    -3.7827    -2.4233 C.3     
  18 C18            5.6537    -2.4812    -2.0656 C.3     
  19 C19            7.8417    -5.4974    -1.5542 C.3     
  20 C20            8.7868    -5.1321    -2.7023 C.3     
  21 C21            9.6983    -6.3236    -3.0049 C.3     
  22 N22           10.4690    -6.6695    -1.8037 N.3     
  23 C23            9.5843    -7.0693    -0.7020 C.3     
  24 C24            8.6695    -5.9000    -0.3306 C.3     
  25 C25           11.4547    -7.7190    -2.0948 C.3     
  26 O26            0.7555    -2.5274    -2.3900 O.2     
  27 N27           -0.5566    -3.4537    -0.7674 N.am    
  28 C28            0.4500    -2.7477     1.1585 C.ar    
  29 C29           -0.6001    -3.4867     0.6280 C.ar    
  30 C30            0.6154    -2.6333     2.5203 C.ar    
  31 C31           -0.2729    -3.2606     3.3795 C.ar    
  32 C32           -1.3242    -4.0004     2.8621 C.ar    
  33 C33           -1.4900    -4.1150     1.4961 C.ar    
  34 Cl34          -2.4380    -4.7869     3.9365 Cl      
  35 C35           -1.0274    -5.8407    -2.0538 C.ar    
  36 C36           -1.3589    -6.8830    -1.2085 C.ar    
  37 C37           -0.2109    -6.0692    -3.1457 C.ar    
  38 C38            0.2739    -7.3401    -3.3922 C.ar    
  39 C39           -0.0573    -8.3823    -2.5466 C.ar    
  40 C40           -0.8737    -8.1538    -1.4548 C.ar    
  41 H41            0.3215    -9.3752    -2.7392 H       
  42 H42           -1.9967    -6.7045    -0.3555 H       
  43 O43           -1.1629    -0.6848     0.0184 O.3     
  44 C44           -3.5737    -0.8522     0.0413 C.3     
  45 C45           -2.3656     0.0866     0.0381 C.3     
  46 S46           -1.6513    -4.2223    -1.7437 S.o2    
  47 O47           -2.8315    -4.3887    -0.9700 O.2     
  48 O48           -1.6283    -3.5380    -2.9888 O.2     
  49 H49            3.3491    -0.4964    -0.0242 H       
  50 H50            3.2485     1.9879     0.0007 H       
  51 H51            1.0583     3.1062     0.0323 H       
  52 H52            2.9015    -3.2781     0.7091 H       
  53 H53            5.9719    -2.7575     0.7643 H       
  54 H54            4.4550    -3.6828     0.9164 H       
  55 H55            6.4993    -5.1449     0.6529 H       
  56 H56            5.2844    -5.3885    -0.6256 H       
  57 H57            7.1310    -3.5851    -3.1778 H       
  58 H58            5.6454    -4.4970    -2.8151 H       
  59 H59            5.0872    -2.1263    -2.9266 H       
  60 H60            6.3860    -1.7297    -1.7706 H       
  61 H61            7.2070    -6.3305    -1.8560 H       
  62 H62            8.2035    -4.8856    -3.5894 H       
  63 H63            9.3937    -4.2735    -2.4149 H       
  64 H64            9.0916    -7.1778    -3.3055 H       
  65 H65           10.3821    -6.0619    -3.8124 H       
  66 H66            8.9782    -7.9200    -1.0134 H       
  67 H67           10.1854    -7.3491     0.1632 H       
  68 H68            9.2745    -5.0535    -0.0059 H       
  69 H69            8.0023    -6.2022     0.4767 H       
  70 H70           12.1436    -7.3676    -2.8630 H       
  71 H71           12.0116    -7.9560    -1.1883 H       
  72 H72           10.9404    -8.6123    -2.4492 H       
  73 H73            1.4365    -2.0559     2.9187 H       
  74 H74           -2.3116    -4.6933     1.0999 H       
  75 H75            0.0479    -5.2550    -3.8063 H       
  76 H76            0.9112    -7.5188    -4.2456 H       
  77 H77           -1.1327    -8.9681    -0.7944 H       
  78 H78           -3.5544    -1.4723    -0.8549 H       
  79 H79           -3.5363    -1.4894     0.9249 H       
  80 H80           -4.4911    -0.2638     0.0564 H       
  81 H81           -2.3849     0.7067     0.9343 H       
  82 H82           -2.4031     0.7238    -0.8455 H       
@<TRIPOS>BOND
   1    1   31 1
   2    2    3 ar
   3    2    7 ar
   4    3    4 ar
   5    3   43 1
   6    4    5 ar
   7    4    8 1
   8    5    6 ar
   9    5   49 1
  10    6    7 ar
  11    6   50 1
  12    7   51 1
  13    8    9 1
  14    8   10 1
  15    8   28 1
  16    9   26 2
  17    9   27 am
  18   10   11 am
  19   10   52 1
  20   11   12 am
  21   11   13 2
  22   12   14 1
  23   12   18 1
  24   14   15 1
  25   14   53 1
  26   14   54 1
  27   15   16 1
  28   15   55 1
  29   15   56 1
  30   16   17 1
  31   16   19 1
  32   17   18 1
  33   17   57 1
  34   17   58 1
  35   18   59 1
  36   18   60 1
  37   19   20 1
  38   19   24 1
  39   19   61 1
  40   20   21 1
  41   20   62 1
  42   20   63 1
  43   21   22 1
  44   21   64 1
  45   21   65 1
  46   22   23 1
  47   22   25 1
  48   23   24 1
  49   23   66 1
  50   23   67 1
  51   24   68 1
  52   24   69 1
  53   25   70 1
  54   25   71 1
  55   25   72 1
  56   27   46 am
  57   27   29 1
  58   28   29 ar
  59   28   30 ar
  60   29   33 ar
  61   30   31 ar
  62   30   73 1
  63   31   32 ar
  64   32   33 ar
  65   32   34 1
  66   33   74 1
  67   35   36 ar
  68   35   37 ar
  69   35   46 1
  70   36   42 1
  71   36   40 ar
  72   37   38 ar
  73   37   75 1
  74   38   39 ar
  75   38   76 1
  76   39   40 ar
  77   39   41 1
  78   40   77 1
  79   43   45 1
  80   44   45 1
  81   44   78 1
  82   44   79 1
  83   44   80 1
  84   45   81 1
  85   45   82 1
  86   46   47 2
  87   46   48 2

#	End of record

