#	Name: ASD03080103
#	Creating user name:	WinNT
#	Creation time:	15. 06. 2019 20:26

#	Modifying user name:	WinNT
#	Modification time:	15. 06. 2019 20:26

#	Program:	/corina/corina34_cracker 3.40 0067  02.08.2006

@<TRIPOS>MOLECULE
ASD03080103
  29   31    0    0    0
SMALL
NO_CHARGES


@<TRIPOS>ATOM
   1 N1             0.0175    -1.1399    -0.0042 N.1     
   2 C2             0.0021    -0.0041     0.0020 C.1     
   3 C3            -0.0173     1.4278     0.0099 C.ar    
   4 C4             1.1808     2.1448     0.0023 C.ar    
   5 C5             1.1587     3.5247     0.0094 C.ar    
   6 C6            -0.0466     4.2012     0.0246 C.ar    
   7 C7            -1.2444     3.4968     0.0322 C.ar    
   8 C8            -1.2339     2.1116     0.0193 C.ar    
   9 N9            -2.4641     4.1884     0.0476 N.pl3   
  10 C10           -3.7049     3.6338     0.0569 C.2     
  11 N11           -4.5931     4.5880     0.0708 N.2     
  12 C12           -3.9647     5.7813     0.0709 C.2     
  13 C13           -2.6264     5.5477     0.0619 C.2     
  14 C14           -4.6188     7.1128     0.0845 C.ar    
  15 C15           -6.0121     7.2193     0.0994 C.ar    
  16 C16           -6.5738     8.4847     0.1116 C.ar    
  17 C17           -5.7460     9.5923     0.1088 C.ar    
  18 N18           -4.4335     9.4604     0.0941 N.ar    
  19 C19           -3.8538     8.2777     0.0884 C.ar    
  20 H20            2.1245     1.6198    -0.0088 H       
  21 H21            2.0863     4.0779     0.0036 H       
  22 H22           -0.0574     5.2811     0.0308 H       
  23 H23           -2.1639     1.5626     0.0252 H       
  24 H24           -3.9199     2.5754     0.0528 H       
  25 H25           -1.8424     6.2905     0.0596 H       
  26 H26           -6.6350     6.3370     0.1009 H       
  27 H27           -7.6470     8.6054     0.1229 H       
  28 H28           -6.1808    10.5808     0.1183 H       
  29 H29           -2.7759     8.2101     0.0764 H       
@<TRIPOS>BOND
   1    1    2 3
   2    2    3 1
   3    3    4 ar
   4    3    8 ar
   5    4    5 ar
   6    4   20 1
   7    5    6 ar
   8    5   21 1
   9    6    7 ar
  10    6   22 1
  11    7    8 ar
  12    7    9 1
  13    8   23 1
  14    9   10 1
  15    9   13 1
  16   10   11 2
  17   10   24 1
  18   11   12 1
  19   12   13 2
  20   12   14 1
  21   13   25 1
  22   14   15 ar
  23   14   19 ar
  24   15   16 ar
  25   15   26 1
  26   16   17 ar
  27   16   27 1
  28   17   18 ar
  29   17   28 1
  30   18   19 ar
  31   19   29 1

#	End of record

