#	Name: ASD04570020
#	Creating user name:	WinNT
#	Creation time:	15. 06. 2019 20:49

#	Modifying user name:	WinNT
#	Modification time:	15. 06. 2019 20:49

#	Program:	/corina/corina34_cracker 3.40 0067  02.08.2006

@<TRIPOS>MOLECULE
ASD04570020
 362  363    0    0    0
SMALL
NO_CHARGES


@<TRIPOS>ATOM
   1 C1            -0.0187     1.5258     0.0104 C.3     
   2 C2             0.0021    -0.0041     0.0020 C.3     
   3 C3             0.7421    -0.5109     1.2415 C.3     
   4 C4             0.7628    -2.0407     1.2331 C.3     
   5 C5             1.5028    -2.5476     2.4727 C.3     
   6 C6             1.5236    -4.0774     2.4642 C.3     
   7 C7             2.2636    -4.5842     3.7038 C.3     
   8 C8             2.2843    -6.1141     3.6954 C.3     
   9 C9             3.0243    -6.6209     4.9349 C.3     
  10 C10            3.0450    -8.1508     4.9265 C.3     
  11 C11            3.7850    -8.6576     6.1660 C.3     
  12 C12            3.8058   -10.1874     6.1576 C.3     
  13 C13            4.5458   -10.6943     7.3971 C.3     
  14 C14            4.5665   -12.2241     7.3887 C.3     
  15 C15            5.3065   -12.7309     8.6282 C.3     
  16 C16            5.3270   -14.2378     8.6199 C.2     
  17 N17            5.9293   -14.9091     9.6215 N.am    
  18 O18            4.8014   -14.8464     7.7120 O.2     
  19 C19            5.9491   -16.3739     9.6134 C.3     
  20 H20            6.3496   -14.4223    10.3476 H       
  21 C21            7.1274   -16.8647    10.4145 C.2     
  22 C22            4.6547   -16.9049    10.2326 C.3     
  23 C23            3.4684   -16.5114     9.3502 C.3     
  24 S24            1.9337   -17.1409    10.0843 S.3     
  25 C25            0.6635   -16.5834     8.9153 C.3     
  26 N26            7.3484   -18.1877    10.5466 N.am    
  27 O27            7.8768   -16.0692    10.9404 O.2     
  28 C28            8.4939   -18.6648    11.3253 C.3     
  29 C29            8.5143   -20.1716    11.3171 C.2     
  30 N30            9.4859   -20.8360    11.9737 N.am    
  31 O31            7.6566   -20.7865    10.7195 O.2     
  32 C32            9.5057   -22.3009    11.9657 C.3     
  33 C33            8.5961   -22.8294    13.0766 C.3     
  34 C34            7.1684   -22.4484    12.7807 C.ar    
  35 C35            6.3675   -23.2964    12.0383 C.ar    
  36 N36           11.1748   -24.1073    12.2295 N.am    
  37 C37           10.9139   -22.7854    12.1964 C.2     
  38 C38            6.6599   -21.2540    13.2569 C.ar    
  39 C39            5.3514   -20.9027    12.9873 C.ar    
  40 C40            4.5473   -21.7494    12.2382 C.ar    
  41 C41            5.0584   -22.9495    11.7657 C.ar    
  42 O42           11.8125   -21.9859    12.3522 O.2     
  43 C43           12.5438   -24.5783    12.4538 C.3     
  44 O44            3.2595   -21.4063    11.9721 O.3     
  45 C45           13.2960   -24.6123    11.1220 C.3     
  46 C46           12.5077   -25.9637    13.0458 C.2     
  47 N47           13.6582   -26.6019    13.3379 N.am    
  48 O48           11.4432   -26.5044    13.2593 O.2     
  49 C49           13.4414   -23.1882    10.5819 C.3     
  50 C50           14.1824   -23.2216     9.2701 C.2     
  51 O51           14.5573   -24.2802     8.8122 O.2     
  52 N52           14.4284   -22.0751     8.6057 N.am    
  53 C53           13.6231   -27.9487    13.9134 C.3     
  54 C54           13.4633   -27.8505    15.4318 C.3     
  55 C55           14.9074   -28.6672    13.5889 C.2     
  56 C56           12.1028   -27.2334    15.7626 C.3     
  57 C57           11.9430   -27.1351    17.2810 C.3     
  58 C58           10.5826   -26.5181    17.6118 C.3     
  59 N59           10.4291   -26.4238    19.0697 N.3     
  60 N60           15.1004   -29.9299    14.0190 N.am    
  61 O61           15.7674   -28.1093    12.9408 O.2     
  62 C62           16.3489   -30.6284    13.7036 C.3     
  63 C63           16.1073   -32.1391    13.7241 C.3     
  64 C64           17.4118   -30.2678    14.7434 C.3     
  65 C65           15.1381   -32.5158    12.6017 C.3     
  66 C66           14.8965   -34.0264    12.6222 C.3     
  67 C67           13.9273   -34.4032    11.4999 C.3     
  68 N68           13.6954   -35.8536    11.5195 N.3     
  69 H69            1.0039     1.9031     0.0027 H       
  70 H70           -0.5459     1.8868    -0.8726 H       
  71 H71           -0.5289     1.8773     0.9072 H       
  72 H72           -1.0205    -0.3814     0.0098 H       
  73 H73            0.5123    -0.3556    -0.8948 H       
  74 H74            1.7647    -0.1336     1.2338 H       
  75 H75            0.2319    -0.1594     2.1383 H       
  76 H76           -0.2598    -2.4180     1.2409 H       
  77 H77            1.2730    -2.3923     0.3363 H       
  78 H78            2.5254    -2.1703     2.4649 H       
  79 H79            0.9926    -2.1961     3.3695 H       
  80 H80            0.5010    -4.4547     2.4720 H       
  81 H81            2.0337    -4.4289     1.5675 H       
  82 H82            3.2861    -4.2070     3.6960 H       
  83 H83            1.7534    -4.2327     4.6006 H       
  84 H84            1.2617    -6.4914     3.7031 H       
  85 H85            2.7945    -6.4656     2.7986 H       
  86 H86            4.0469    -6.2436     4.9271 H       
  87 H87            2.5141    -6.2694     5.8317 H       
  88 H88            2.0224    -8.5280     4.9342 H       
  89 H89            3.5552    -8.5023     4.0297 H       
  90 H90            4.8076    -8.2803     6.1583 H       
  91 H91            3.2748    -8.3061     7.0628 H       
  92 H92            2.7832   -10.5647     6.1653 H       
  93 H93            4.3160   -10.5389     5.2608 H       
  94 H94            5.5684   -10.3170     7.3894 H       
  95 H95            4.0356   -10.3427     8.2939 H       
  96 H96            3.5439   -12.6014     7.3964 H       
  97 H97            5.0767   -12.5756     6.4919 H       
  98 H98            6.3291   -12.3537     8.6205 H       
  99 H99            4.7963   -12.3794     9.5250 H       
 100 H100           6.0338   -16.7305     8.5869 H       
 101 H101           4.7069   -17.9911    10.3080 H       
 102 H102           4.5255   -16.4775    11.2269 H       
 103 H103           3.4162   -15.4252     9.2748 H       
 104 H104           3.5975   -16.9388     8.3559 H       
 105 H105          -0.3171   -16.9107     9.2609 H       
 106 H106           0.6815   -15.4955     8.8508 H       
 107 H107           0.8628   -17.0091     7.9319 H       
 108 H108           6.7491   -18.8239    10.1260 H       
 109 H109           9.4161   -18.2865    10.8842 H       
 110 H110           8.4092   -18.3082    12.3519 H       
 111 H111          10.1719   -20.3443    12.4517 H       
 112 H112           9.1500   -22.6638    11.0014 H       
 113 H113           8.6791   -23.9150    13.1286 H       
 114 H114           8.8976   -22.3959    14.0301 H       
 115 H115           6.7658   -24.2307    11.6710 H       
 116 H116          10.4562   -24.7467    12.1049 H       
 117 H117           7.2862   -20.5954    13.8403 H       
 118 H118           4.9545   -19.9699    13.3598 H       
 119 H119           4.4344   -23.6103    11.1823 H       
 120 H120          13.0525   -23.9026    13.1413 H       
 121 H121           3.1480   -20.9006    11.1554 H       
 122 H122          14.2845   -25.0459    11.2739 H       
 123 H123          12.7400   -25.2174    10.4059 H       
 124 H124          14.5096   -26.1695    13.1671 H       
 125 H125          12.4530   -22.7546    10.4299 H       
 126 H126          13.9974   -22.5830    11.2979 H       
 127 H127          14.1285   -21.2284     8.9719 H       
 128 H128          14.9053   -22.0966     7.7613 H       
 129 H129          12.7820   -28.5010    13.4945 H       
 130 H130          13.5262   -28.8470    15.8690 H       
 131 H131          14.2556   -27.2236    15.8408 H       
 132 H132          12.0399   -26.2369    15.3254 H       
 133 H133          11.3105   -27.8603    15.3536 H       
 134 H134          12.0059   -28.1316    17.7182 H       
 135 H135          12.7354   -26.5083    17.6900 H       
 136 H136          10.5196   -25.5216    17.1746 H       
 137 H137           9.7902   -27.1450    17.2028 H       
 138 H138          11.1882   -25.9010    19.4801 H       
 139 H139           9.5377   -26.0190    19.3140 H       
 140 H140          14.4126   -30.3761    14.5374 H       
 141 H141          16.6928   -30.3288    12.7136 H       
 142 H142          17.0533   -32.6603    13.5774 H       
 143 H143          15.6797   -32.4257    14.6848 H       
 144 H144          18.3407   -30.7875    14.5087 H       
 145 H145          17.5839   -29.1915    14.7289 H       
 146 H146          17.0679   -30.5674    15.7334 H       
 147 H147          14.1921   -31.9945    12.7484 H       
 148 H148          15.5657   -32.2292    11.6410 H       
 149 H149          15.8425   -34.5477    12.4755 H       
 150 H150          14.4689   -34.3130    13.5830 H       
 151 H151          12.9813   -33.8819    11.6465 H       
 152 H152          14.3549   -34.1166    10.5391 H       
 153 H153          13.3594   -36.1539    12.4223 H       
 154 H154          13.0579   -36.1278    10.7870 H       
 155 C155          52.7376    19.4798    32.3047 C.3     
 156 C156          52.7581    17.9730    32.2964 C.2     
 157 N157          52.7784    17.2929    33.4598 N.am    
 158 C158          52.7982    15.8280    33.4518 C.3     
 159 C159          51.5680    15.3128    32.7503 C.2     
 160 N160          51.1539    14.0472    32.9583 N.am    
 161 C161          49.9579    13.5464    32.2764 C.3     
 162 C162          48.7690    14.3869    32.6650 C.2     
 163 N163          47.5210    13.9041    32.5043 N.am    
 164 C164          46.3652    14.7213    32.8821 C.3     
 165 C165          45.1607    14.2850    32.0885 C.2     
 166 N166          43.9752    14.8998    32.2702 N.am    
 167 C167          42.8042    14.4757    31.4988 C.3     
 168 O168          52.7563    17.3723    31.2428 O.2     
 169 C169          54.0473    15.3390    32.7159 C.3     
 170 C170          55.2953    15.7564    33.4965 C.3     
 171 C171          55.3150    15.0396    34.8480 C.3     
 172 C172          56.5455    15.3776    32.7000 C.3     
 173 O173          50.9505    16.0371    31.9986 O.2     
 174 C174          50.1641    13.6237    30.7623 C.3     
 175 C175          51.2915    12.6742    30.3520 C.3     
 176 C176          51.4977    12.7515    28.8380 C.3     
 177 C177          52.6251    11.8020    28.4277 C.3     
 178 N178          52.8226    11.8760    26.9779 N.pl3   
 179 C179          53.7890    11.1057    26.3756 C.2     
 180 N180          53.9743    11.1752    25.0150 N.pl3   
 181 N181          54.5296    10.3096    27.0944 N.2     
 182 O182          48.9353    15.4978    33.1224 O.2     
 183 C183          46.0829    14.5459    34.3755 C.3     
 184 O184          45.6910    13.1956    34.6309 O.3     
 185 O185          45.2580    13.3805    31.2864 O.2     
 186 C186          41.5495    14.8280    32.2556 C.2     
 187 C187          42.8000    15.1881    30.1448 C.3     
 188 C188          44.0102    14.7343    29.3260 C.3     
 189 S189          44.0053    15.5790    27.7207 S.3     
 190 C190          45.4887    14.9219    26.9093 C.3     
 191 O191          41.6260    15.3791    33.3333 O.2     
 192 N192          40.3425    14.5307    31.7349 N.am    
 193 C193          39.0443    14.8163    32.3632 C.3     
 194 C194          37.9496    14.2765    31.4188 C.3     
 195 C195          38.7073    13.2133    30.5804 C.3     
 196 C196          40.1051    13.8708    30.4381 C.3     
 197 C197          38.9573    14.1225    33.6982 C.2     
 198 N198          37.8468    14.2478    34.4516 N.am    
 199 O199          39.8865    13.4515    34.0945 O.2     
 200 C200          37.7622    13.5733    35.7493 C.3     
 201 C201          38.4118    14.4491    36.8226 C.3     
 202 C202          36.3155    13.3388    36.1002 C.2     
 203 O203          38.3293    13.7913    38.0884 O.3     
 204 C204          39.8806    14.6872    36.4663 C.3     
 205 O205          35.4412    13.6995    35.3410 O.2     
 206 N206          35.9932    12.7282    37.2577 N.am    
 207 C207          34.5869    12.5003    37.5988 C.3     
 208 C208          34.1090    11.1997    36.9498 C.3     
 209 C209          34.1368    11.3468    35.4503 C.2     
 210 O210          33.0853    11.9028    34.8055 O.3     
 211 N211          33.2299    12.1867    39.6430 N.am    
 212 C212          34.4433    12.3972    39.0954 C.2     
 213 O213          35.4196    12.5037    39.8070 O.2     
 214 Cl214         35.3409    10.8725    34.6655 Cl      
 215 C215          33.0903    12.0865    41.0979 C.3     
 216 C216          31.6864    12.4638    41.4950 C.2     
 217 N217          31.3251    12.4445    42.7933 N.am    
 218 C218          34.8397    10.3091    41.2493 C.3     
 219 C219          33.3768    10.6500    41.5400 C.3     
 220 C220          35.1262     8.8726    41.6915 C.3     
 221 C221          36.5891     8.5317    41.4008 C.3     
 222 N222          36.8641     7.1525    41.8252 N.3     
 223 O223          30.8817    12.7848    40.6463 O.2     
 224 C224          29.9603    12.8113    43.1794 C.3     
 225 C225          29.0501    11.5874    43.0596 C.3     
 226 C226          28.9571    11.1700    41.6145 C.ar    
 227 C227          29.8617    10.2601    41.0994 C.ar    
 228 N228          28.8021    13.6981    45.1771 N.am    
 229 C229          29.9562    13.3029    44.6039 C.2     
 230 C230          27.9638    11.6934    40.8075 C.ar    
 231 C231          27.8761    11.3120    39.4827 C.ar    
 232 C232          28.7859    10.4031    38.9620 C.ar    
 233 C233          29.7786     9.8758    39.7751 C.ar    
 234 O234          30.9913    13.3430    45.2346 O.2     
 235 O235          28.7015    10.0261    37.6591 O.3     
 236 C236          28.7981    14.1760    46.5619 C.3     
 237 C237          27.6216    15.0937    46.7732 C.2     
 238 N238          27.4142    15.6566    47.9801 N.am    
 239 C239          29.9460    12.1161    47.3875 C.3     
 240 C240          28.6911    12.9824    47.5131 C.3     
 241 C241          29.8390    10.9224    48.3386 C.3     
 242 N242          31.0405    10.0930    48.2184 N.pl3   
 243 O243          26.8613    15.3257    45.8572 O.2     
 244 C244          26.2705    16.5488    48.1855 C.3     
 245 C245          25.8867    16.5533    49.6666 C.3     
 246 C246          25.3927    15.1625    50.0696 C.3     
 247 C247          25.1272    15.1323    51.5761 C.3     
 248 N248          25.7376    18.9419    47.8575 N.am    
 249 C249          26.6400    17.9458    47.7581 C.2     
 250 O250          27.7495    18.1739    47.3246 O.2     
 251 C251          24.0993    14.8428    49.3174 C.3     
 252 C252          31.1707     8.9569    48.9816 C.2     
 253 N253          30.2252     8.6178    49.8121 N.2     
 254 N254          32.2983     8.1785    48.8687 N.pl3   
 255 H255          53.7602    19.8571    32.2970 H       
 256 H256          52.2105    19.8409    31.4216 H       
 257 H257          52.2275    19.8313    33.2015 H       
 258 H258          52.7798    17.7733    34.3025 H       
 259 H259          52.8130    15.4592    34.4774 H       
 260 H260          51.6478    13.4680    33.5596 H       
 261 H261          49.7811    12.5107    32.5666 H       
 262 H262          47.3880    13.0157    32.1385 H       
 263 H263          46.5776    15.7697    32.6731 H       
 264 H264          43.8973    15.6232    32.9118 H       
 265 H265          42.8433    13.3977    31.3421 H       
 266 H266          54.0177    14.2526    32.6322 H       
 267 H267          54.0778    15.7795    31.7194 H       
 268 H268          55.2797    16.8344    33.6572 H       
 269 H269          55.3306    13.9616    34.6873 H       
 270 H270          56.2041    15.3369    35.4041 H       
 271 H271          54.4244    15.3094    35.4155 H       
 272 H272          56.5314    15.8883    31.7371 H       
 273 H273          57.4345    15.6750    33.2560 H       
 274 H274          56.5611    14.2996    32.5393 H       
 275 H275          49.2435    13.3352    30.2551 H       
 276 H276          50.4285    14.6436    30.4833 H       
 277 H277          52.2122    12.9626    30.8593 H       
 278 H278          51.0272    11.6542    30.6311 H       
 279 H279          50.5771    12.4630    28.3307 H       
 280 H280          51.7621    13.7714    28.5589 H       
 281 H281          53.5458    12.0904    28.9349 H       
 282 H282          52.3607    10.7820    28.7068 H       
 283 H283          52.2714    12.4684    26.4430 H       
 284 H284          53.4232    11.7676    24.4801 H       
 285 H285          54.6562    10.6317    24.5901 H       
 286 H286          55.2115     9.7662    26.6694 H       
 287 H287          46.9832    14.7767    34.9450 H       
 288 H288          45.2805    15.2200    34.6753 H       
 289 H289          45.4959    13.0117    35.5600 H       
 290 H290          41.8845    14.9415    29.6072 H       
 291 H291          42.8505    16.2657    30.3011 H       
 292 H292          44.9258    14.9809    29.8636 H       
 293 H293          43.9597    13.6567    29.1698 H       
 294 H294          45.5890    15.3673    25.9196 H       
 295 H295          46.3673    15.1639    27.5074 H       
 296 H296          45.4013    13.8396    26.8135 H       
 297 H297          38.9242    15.8918    32.4935 H       
 298 H298          37.1424    13.8153    31.9879 H       
 299 H299          37.5665    15.0711    30.7786 H       
 300 H300          38.7701    12.2659    31.1156 H       
 301 H301          38.2395    13.0790    29.6050 H       
 302 H302          40.0999    14.6020    29.6298 H       
 303 H303          40.8653    13.1107    30.2583 H       
 304 H304          37.1036    14.7845    34.1345 H       
 305 H305          38.2829    12.6172    35.6965 H       
 306 H306          37.8911    15.4053    36.8754 H       
 307 H307          38.7722    12.9321    38.1148 H       
 308 H308          39.9435    15.1890    35.5008 H       
 309 H309          40.3434    15.3112    37.2309 H       
 310 H310          40.4012    13.7311    36.4135 H       
 311 H311          36.6925    12.4397    37.8649 H       
 312 H312          33.9848    13.3317    37.2324 H       
 313 H313          34.7663    10.3825    37.2470 H       
 314 H314          33.0913    10.9840    37.2750 H       
 315 H315          33.1948    11.9544    33.8462 H       
 316 H316          32.4491    12.1015    39.0739 H       
 317 H317          35.1384    11.1087    33.3313 H       
 318 H318          33.7978    12.7624    41.5782 H       
 319 H319          31.9687    12.1878    43.4721 H       
 320 H320          35.0296    10.4049    40.1803 H       
 321 H321          35.4880    10.9937    41.7963 H       
 322 H322          33.1869    10.5542    42.6091 H       
 323 H323          32.7285     9.9654    40.9931 H       
 324 H324          34.9363     8.7768    42.7605 H       
 325 H325          34.4779     8.1880    41.1445 H       
 326 H326          36.7790     8.6275    40.3317 H       
 327 H327          37.2373     9.2163    41.9477 H       
 328 H328          37.8248     6.9031    41.6437 H       
 329 H329          36.6343     7.0212    42.7989 H       
 330 H330          29.5964    13.6006    42.5216 H       
 331 H331          29.4631    10.7684    43.6485 H       
 332 H332          28.0558    11.8363    43.4306 H       
 333 H333          30.6342     9.8496    41.7328 H       
 334 H334          27.9742    13.6661    44.6727 H       
 335 H335          27.2556    12.4006    41.2134 H       
 336 H336          27.0999    11.7208    38.8528 H       
 337 H337          30.4880     9.1681    39.3721 H       
 338 H338          29.2119    10.5824    37.0548 H       
 339 H339          29.7223    14.7182    46.7619 H       
 340 H340          28.0223    15.4711    48.7127 H       
 341 H341          30.0384    11.7568    46.3625 H       
 342 H342          30.8238    12.7086    47.6453 H       
 343 H343          28.5987    13.3416    48.5380 H       
 344 H344          27.8133    12.3899    47.2552 H       
 345 H345          29.7465    11.2817    49.3635 H       
 346 H346          28.9611    10.3299    48.0808 H       
 347 H347          31.7442    10.3453    47.6003 H       
 348 H348          25.4256    16.1988    47.5923 H       
 349 H349          26.7574    16.8176    50.2667 H       
 350 H350          25.0946    17.2830    49.8344 H       
 351 H351          26.1513    14.4208    49.8195 H       
 352 H352          24.3686    15.8740    51.8263 H       
 353 H353          24.7753    14.1415    51.8633 H       
 354 H354          26.0486    15.3600    52.1121 H       
 355 H355          24.8502    18.7595    48.2043 H       
 356 H356          25.9754    19.8411    47.5824 H       
 357 H357          24.2885    14.8643    48.2441 H       
 358 H358          23.7474    13.8520    49.6045 H       
 359 H359          23.3407    15.5845    49.5675 H       
 360 H360          30.3170     7.8162    50.3506 H       
 361 H361          33.0020     8.4308    48.2506 H       
 362 H362          32.3902     7.3769    49.4072 H       
@<TRIPOS>BOND
   1    1    2 1
   2    1   69 1
   3    1   70 1
   4    1   71 1
   5    2    3 1
   6    2   72 1
   7    2   73 1
   8    3    4 1
   9    3   74 1
  10    3   75 1
  11    4    5 1
  12    4   76 1
  13    4   77 1
  14    5    6 1
  15    5   78 1
  16    5   79 1
  17    6    7 1
  18    6   80 1
  19    6   81 1
  20    7    8 1
  21    7   82 1
  22    7   83 1
  23    8    9 1
  24    8   84 1
  25    8   85 1
  26    9   10 1
  27    9   86 1
  28    9   87 1
  29   10   11 1
  30   10   88 1
  31   10   89 1
  32   11   12 1
  33   11   90 1
  34   11   91 1
  35   12   13 1
  36   12   92 1
  37   12   93 1
  38   13   14 1
  39   13   94 1
  40   13   95 1
  41   14   15 1
  42   14   96 1
  43   14   97 1
  44   15   16 1
  45   15   98 1
  46   15   99 1
  47   16   17 am
  48   16   18 2
  49   17   19 1
  50   17   20 1
  51   19   21 1
  52   19   22 1
  53   19  100 1
  54   21   26 am
  55   21   27 2
  56   22   23 1
  57   22  101 1
  58   22  102 1
  59   23   24 1
  60   23  103 1
  61   23  104 1
  62   24   25 1
  63   25  105 1
  64   25  106 1
  65   25  107 1
  66   26   28 1
  67   26  108 1
  68   28   29 1
  69   28  109 1
  70   28  110 1
  71   29   30 am
  72   29   31 2
  73   30   32 1
  74   30  111 1
  75   32   33 1
  76   32   37 1
  77   32  112 1
  78   33   34 1
  79   33  113 1
  80   33  114 1
  81   34   35 ar
  82   34   38 ar
  83   35   41 ar
  84   35  115 1
  85   36   37 am
  86   36   43 1
  87   36  116 1
  88   37   42 2
  89   38   39 ar
  90   38  117 1
  91   39   40 ar
  92   39  118 1
  93   40   41 ar
  94   40   44 1
  95   41  119 1
  96   43   45 1
  97   43   46 1
  98   43  120 1
  99   44  121 1
 100   45   49 1
 101   45  122 1
 102   45  123 1
 103   46   47 am
 104   46   48 2
 105   47   53 1
 106   47  124 1
 107   49   50 1
 108   49  125 1
 109   49  126 1
 110   50   51 2
 111   50   52 am
 112   52  127 1
 113   52  128 1
 114   53   54 1
 115   53   55 1
 116   53  129 1
 117   54   56 1
 118   54  130 1
 119   54  131 1
 120   55   60 am
 121   55   61 2
 122   56   57 1
 123   56  132 1
 124   56  133 1
 125   57   58 1
 126   57  134 1
 127   57  135 1
 128   58   59 1
 129   58  136 1
 130   58  137 1
 131   59  138 1
 132   59  139 1
 133   60   62 1
 134   60  140 1
 135   62   63 1
 136   62   64 1
 137   62  141 1
 138   63   65 1
 139   63  142 1
 140   63  143 1
 141   64  144 1
 142   64  145 1
 143   64  146 1
 144   65   66 1
 145   65  147 1
 146   65  148 1
 147   66   67 1
 148   66  149 1
 149   66  150 1
 150   67   68 1
 151   67  151 1
 152   67  152 1
 153   68  153 1
 154   68  154 1
 155  155  156 1
 156  155  255 1
 157  155  256 1
 158  155  257 1
 159  156  157 am
 160  156  168 2
 161  157  158 1
 162  157  258 1
 163  158  159 1
 164  158  169 1
 165  158  259 1
 166  159  160 am
 167  159  173 2
 168  160  161 1
 169  160  260 1
 170  161  162 1
 171  161  174 1
 172  161  261 1
 173  162  163 am
 174  162  182 2
 175  163  164 1
 176  163  262 1
 177  164  165 1
 178  164  183 1
 179  164  263 1
 180  165  166 am
 181  165  185 2
 182  166  167 1
 183  166  264 1
 184  167  186 1
 185  167  187 1
 186  167  265 1
 187  169  170 1
 188  169  266 1
 189  169  267 1
 190  170  171 1
 191  170  172 1
 192  170  268 1
 193  171  269 1
 194  171  270 1
 195  171  271 1
 196  172  272 1
 197  172  273 1
 198  172  274 1
 199  174  175 1
 200  174  275 1
 201  174  276 1
 202  175  176 1
 203  175  277 1
 204  175  278 1
 205  176  177 1
 206  176  279 1
 207  176  280 1
 208  177  178 1
 209  177  281 1
 210  177  282 1
 211  178  179 1
 212  178  283 1
 213  179  180 1
 214  179  181 2
 215  180  284 1
 216  180  285 1
 217  181  286 1
 218  183  184 1
 219  183  287 1
 220  183  288 1
 221  184  289 1
 222  186  191 2
 223  186  192 am
 224  187  188 1
 225  187  290 1
 226  187  291 1
 227  188  189 1
 228  188  292 1
 229  188  293 1
 230  189  190 1
 231  190  294 1
 232  190  295 1
 233  190  296 1
 234  192  193 1
 235  192  196 1
 236  193  194 1
 237  193  197 1
 238  193  297 1
 239  194  195 1
 240  194  298 1
 241  194  299 1
 242  195  196 1
 243  195  300 1
 244  195  301 1
 245  196  302 1
 246  196  303 1
 247  197  198 am
 248  197  199 2
 249  198  200 1
 250  198  304 1
 251  200  201 1
 252  200  202 1
 253  200  305 1
 254  201  203 1
 255  201  204 1
 256  201  306 1
 257  202  205 2
 258  202  206 am
 259  203  307 1
 260  204  308 1
 261  204  309 1
 262  204  310 1
 263  206  207 1
 264  206  311 1
 265  207  208 1
 266  207  212 1
 267  207  312 1
 268  208  209 1
 269  208  313 1
 270  208  314 1
 271  209  210 1
 272  209  214 2
 273  210  315 1
 274  211  212 am
 275  211  215 1
 276  211  316 1
 277  212  213 2
 278  214  317 1
 279  215  216 1
 280  215  219 1
 281  215  318 1
 282  216  217 am
 283  216  223 2
 284  217  224 1
 285  217  319 1
 286  218  219 1
 287  218  220 1
 288  218  320 1
 289  218  321 1
 290  219  322 1
 291  219  323 1
 292  220  221 1
 293  220  324 1
 294  220  325 1
 295  221  222 1
 296  221  326 1
 297  221  327 1
 298  222  328 1
 299  222  329 1
 300  224  225 1
 301  224  229 1
 302  224  330 1
 303  225  226 1
 304  225  331 1
 305  225  332 1
 306  226  227 ar
 307  226  230 ar
 308  227  233 ar
 309  227  333 1
 310  228  229 am
 311  228  236 1
 312  228  334 1
 313  229  234 2
 314  230  231 ar
 315  230  335 1
 316  231  232 ar
 317  231  336 1
 318  232  233 ar
 319  232  235 1
 320  233  337 1
 321  235  338 1
 322  236  237 1
 323  236  240 1
 324  236  339 1
 325  237  238 am
 326  237  243 2
 327  238  244 1
 328  238  340 1
 329  239  240 1
 330  239  241 1
 331  239  341 1
 332  239  342 1
 333  240  343 1
 334  240  344 1
 335  241  242 1
 336  241  345 1
 337  241  346 1
 338  242  252 1
 339  242  347 1
 340  244  245 1
 341  244  249 1
 342  244  348 1
 343  245  246 1
 344  245  349 1
 345  245  350 1
 346  246  247 1
 347  246  251 1
 348  246  351 1
 349  247  352 1
 350  247  353 1
 351  247  354 1
 352  248  249 am
 353  248  355 1
 354  248  356 1
 355  249  250 2
 356  251  357 1
 357  251  358 1
 358  251  359 1
 359  252  253 2
 360  252  254 1
 361  253  360 1
 362  254  361 1
 363  254  362 1

#	End of record

