#	Name: ASD01910741
#	Creating user name:	WinNT
#	Creation time:	15. 06. 2019 19:56

#	Modifying user name:	WinNT
#	Modification time:	15. 06. 2019 19:56

#	Program:	/corina/corina34_cracker 3.40 0067  02.08.2006

@<TRIPOS>MOLECULE
ASD01910741
  51   54    0    0    0
SMALL
NO_CHARGES


@<TRIPOS>ATOM
   1 C1            12.4218    -2.2983     4.1741 C.ar    
   2 N2            12.9664    -2.4588     2.9798 N.ar    
   3 C3            12.2903    -2.1312     1.8951 C.ar    
   4 C4            11.0013    -1.6159     2.0097 C.ar    
   5 N5            10.4588    -1.4566     3.2100 N.ar    
   6 C6            11.1432    -1.7873     4.2919 C.ar    
   7 N7            10.2855    -1.2691     0.8697 N.3     
   8 C8             8.9568    -0.7496     1.2202 C.3     
   9 C9             8.2729    -0.2125    -0.0416 C.3     
  10 N10            8.2773    -1.2715    -1.0622 N.am    
  11 C11            9.5527    -1.9364    -1.3697 C.3     
  12 C12           10.1862    -2.4056    -0.0557 C.3     
  13 C13            7.1426    -1.6236    -1.6985 C.2     
  14 C14            7.1894    -2.6011    -2.8071 C.ar    
  15 O15            6.0807    -1.1377    -1.3612 O.2     
  16 C16            6.1831    -3.5608    -2.9367 C.ar    
  17 C17            6.2245    -4.4749    -3.9713 C.ar    
  18 C18            7.2592    -4.4475    -4.8843 C.ar    
  19 C19            8.2734    -3.4919    -4.7672 C.ar    
  20 C20            8.2343    -2.5628    -3.7277 C.ar    
  21 C21            9.3466    -3.4642    -5.7149 C.1     
  22 C22           10.2264    -3.4414    -6.4919 C.1     
  23 C23           11.2996    -3.4137    -7.4396 C.ar    
  24 C24            7.2963    -5.4496    -6.0092 C.3     
  25 C25           12.3136    -2.4594    -7.3238 C.ar    
  26 C26           13.3448    -2.4376    -8.2398 C.ar    
  27 C27           13.3777    -3.3575    -9.2722 C.ar    
  28 C28           12.3758    -4.3077    -9.3945 C.ar    
  29 C29           11.3404    -4.3444    -8.4809 C.ar    
  30 F30           12.4148    -5.2025   -10.4060 F       
  31 H31           12.9762    -2.5716     5.0598 H       
  32 H32           12.7357    -2.2622     0.9200 H       
  33 H33           10.7022    -1.6579     5.2693 H       
  34 H34            8.3540    -1.5510     1.6474 H       
  35 H35            9.0612     0.0551     1.9479 H       
  36 H36            7.2456     0.0685     0.1902 H       
  37 H37            8.8181     0.6555    -0.4122 H       
  38 H38            9.3714    -2.7951    -2.0160 H       
  39 H39           10.2209    -1.2340    -1.8680 H       
  40 H40           11.1822    -2.8019    -0.2532 H       
  41 H41            9.5663    -3.1840     0.3894 H       
  42 H42            5.3705    -3.5885    -2.2258 H       
  43 H43            5.4436    -5.2150    -4.0661 H       
  44 H44            9.0148    -1.8224    -3.6321 H       
  45 H45            6.7660    -5.0469    -6.8722 H       
  46 H46            8.3322    -5.6522    -6.2813 H       
  47 H47            6.8176    -6.3746    -5.6877 H       
  48 H48           12.2899    -1.7399    -6.5187 H       
  49 H49           14.1286    -1.6999    -8.1508 H       
  50 H50           14.1875    -3.3352    -9.9865 H       
  51 H51           10.5599    -5.0847    -8.5765 H       
@<TRIPOS>BOND
   1    1    2 ar
   2    1    6 ar
   3    1   31 1
   4    2    3 ar
   5    3    4 ar
   6    3   32 1
   7    4    5 ar
   8    4    7 1
   9    5    6 ar
  10    6   33 1
  11    7    8 1
  12    7   12 1
  13    8    9 1
  14    8   34 1
  15    8   35 1
  16    9   10 1
  17    9   36 1
  18    9   37 1
  19   10   11 1
  20   10   13 am
  21   11   12 1
  22   11   38 1
  23   11   39 1
  24   12   40 1
  25   12   41 1
  26   13   14 1
  27   13   15 2
  28   14   16 ar
  29   14   20 ar
  30   16   17 ar
  31   16   42 1
  32   17   18 ar
  33   17   43 1
  34   18   19 ar
  35   18   24 1
  36   19   20 ar
  37   19   21 1
  38   20   44 1
  39   21   22 3
  40   22   23 1
  41   23   25 ar
  42   23   29 ar
  43   24   45 1
  44   24   46 1
  45   24   47 1
  46   25   26 ar
  47   25   48 1
  48   26   27 ar
  49   26   49 1
  50   27   28 ar
  51   27   50 1
  52   28   29 ar
  53   28   30 1
  54   29   51 1

#	End of record

