#	Name: ASD01150858
#	Creating user name:	WinNT
#	Creation time:	15. 06. 2019 19:05

#	Modifying user name:	WinNT
#	Modification time:	15. 06. 2019 19:05

#	Program:	/corina/corina34_cracker 3.40 0067  02.08.2006

@<TRIPOS>MOLECULE
ASD01150858
  46   48    0    0    0
SMALL
NO_CHARGES


@<TRIPOS>ATOM
   1 C1            -0.0179     1.4656     0.0101 C.2     
   2 C2             0.0021    -0.0041     0.0020 C.2     
   3 N3            -1.1558    -0.6938     0.0089 N.am    
   4 O4             1.0638    -0.5979    -0.0109 O.2     
   5 C5            -1.1370    -2.0836     0.0012 C.2     
   6 N6            -0.0479    -2.8559    -0.0124 N.2     
   7 C7            -0.3958    -4.1265    -0.0154 C.2     
   8 N8            -1.7504    -4.2221    -0.0036 N.pl3   
   9 C9            -2.2480    -2.9178     0.0125 C.2     
  10 S10            0.7216    -5.4888    -0.0322 S.3     
  11 C11            2.2991    -4.6012    -0.0414 C.3     
  12 C12           -2.5384    -5.4572    -0.0025 C.3     
  13 C13           -3.6018    -2.5268     0.0286 C.2     
  14 O14           -4.5751    -3.4631     0.0294 O.3     
  15 O15           -3.8941    -1.3446     0.0417 O.2     
  16 C16           -5.9253    -2.9953     0.0462 C.3     
  17 C17           -6.8794    -4.1914     0.0446 C.3     
  18 C18           -2.7962    -5.8872     1.4186 C.ar    
  19 C19           -3.9236    -5.4406     2.0822 C.ar    
  20 C20           -4.1601    -5.8351     3.3858 C.ar    
  21 C21           -3.2694    -6.6765     4.0257 C.ar    
  22 C22           -2.1424    -7.1239     3.3618 C.ar    
  23 C23           -1.9082    -6.7329     2.0568 C.ar    
  24 C24            1.1078     2.2327     0.0035 C.2     
  25 S25            0.7112     3.8903     0.0162 S.3     
  26 C26           -1.0115     3.5561     0.0308 C.2     
  27 C27           -1.2342     2.2470     0.0197 C.2     
  28 Cl28           2.7269     1.6068    -0.0145 Cl      
  29 Cl29          -2.2531     4.7693     0.0497 Cl      
  30 H30           -2.0023    -0.2202     0.0191 H       
  31 H31            2.3560    -3.9707    -0.9287 H       
  32 H32            2.3716    -3.9798     0.8512 H       
  33 H33            3.1196    -5.3187    -0.0522 H       
  34 H34           -3.4885    -5.2824    -0.5073 H       
  35 H35           -1.9880    -6.2398    -0.5248 H       
  36 H36           -6.0920    -2.3987     0.9430 H       
  37 H37           -6.1086    -2.3831    -0.8368 H       
  38 H38           -6.7127    -4.7880    -0.8523 H       
  39 H39           -6.6960    -4.8036     0.9275 H       
  40 H40           -7.9093    -3.8346     0.0573 H       
  41 H41           -4.6195    -4.7832     1.5823 H       
  42 H42           -5.0406    -5.4855     3.9044 H       
  43 H43           -3.4538    -6.9842     5.0444 H       
  44 H44           -1.4464    -7.7811     3.8619 H       
  45 H45           -1.0277    -7.0824     1.5381 H       
  46 H46           -2.2222     1.8108     0.0256 H       
@<TRIPOS>BOND
   1    1    2 1
   2    1   24 2
   3    1   27 1
   4    2    3 am
   5    2    4 2
   6    3    5 1
   7    3   30 1
   8    5    6 1
   9    5    9 2
  10    6    7 2
  11    7    8 1
  12    7   10 1
  13    8    9 1
  14    8   12 1
  15    9   13 1
  16   10   11 1
  17   11   31 1
  18   11   32 1
  19   11   33 1
  20   12   18 1
  21   12   34 1
  22   12   35 1
  23   13   14 1
  24   13   15 2
  25   14   16 1
  26   16   17 1
  27   16   36 1
  28   16   37 1
  29   17   38 1
  30   17   39 1
  31   17   40 1
  32   18   19 ar
  33   18   23 ar
  34   19   20 ar
  35   19   41 1
  36   20   21 ar
  37   20   42 1
  38   21   22 ar
  39   21   43 1
  40   22   23 ar
  41   22   44 1
  42   23   45 1
  43   24   25 1
  44   24   28 1
  45   25   26 1
  46   26   27 2
  47   26   29 1
  48   27   46 1

#	End of record

