#	Name: ASD01882402
#	Creating user name:	WinNT
#	Creation time:	15. 06. 2019 19:44

#	Modifying user name:	WinNT
#	Modification time:	15. 06. 2019 19:44

#	Program:	/corina/corina34_cracker 3.40 0067  02.08.2006

@<TRIPOS>MOLECULE
ASD01882402
  52   57    0    0    0
SMALL
NO_CHARGES


@<TRIPOS>ATOM
   1 C1             2.4491     1.4346     0.0645 C.2     
   2 C2             2.4925     0.0296     0.0408 C.2     
   3 C3             1.3180    -0.6739     0.0407 C.2     
   4 C4             0.0896     0.0212     0.0643 C.2     
   5 C5             0.0715     1.3683     0.0868 C.2     
   6 N6             1.2363     2.0793     0.0871 N.pl3   
   7 N7             2.8255     3.5335     0.0986 N.2     
   8 N8             3.3826     2.3740     0.0762 N.2     
   9 C9             1.5240     3.4123     0.1069 C.2     
  10 N10            1.3351    -2.0665     0.0170 N.pl3   
  11 C11            2.5323    -2.9041    -0.1258 C.3     
  12 C12            2.0780    -4.3741    -0.1694 C.3     
  13 C13            0.5615    -4.2736    -0.5319 C.3     
  14 C14            0.1565    -2.9399     0.1373 C.3     
  15 N15            1.7559    -4.8780    -2.5281 N.3     
  16 C16            2.6935    -5.0539    -1.4061 C.3     
  17 C17            0.6083    -4.0737    -2.0627 C.3     
  18 C18            2.3871    -4.2674    -3.6183 C.ar    
  19 C19            2.5677    -4.9729    -4.8034 C.ar    
  20 C20            3.1909    -4.3670    -5.8784 C.ar    
  21 C21            3.6349    -3.0591    -5.7751 C.ar    
  22 C22            3.4558    -2.3561    -4.5963 C.ar    
  23 C23            2.8285    -2.9556    -3.5205 C.ar    
  24 F24            4.2442    -2.4687    -6.8264 F       
  25 F25            2.1349    -6.2488    -4.9036 F       
  26 C26            0.5242     4.5395     0.1355 C.3     
  27 C27            0.1997     4.8966     1.5875 C.3     
  28 C28           -0.7116     6.1010     1.8320 C.3     
  29 C29           -1.2388     4.6834     2.0629 C.3     
  30 Cl30           4.0157    -0.8026     0.0114 Cl      
  31 H31           -0.8397    -0.5292     0.0640 H       
  32 H32           -0.8738     1.8903     0.1044 H       
  33 H33            3.0516    -2.6509    -1.0501 H       
  34 H34            3.1954    -2.7480     0.7251 H       
  35 H35            2.2650    -4.9073     0.7627 H       
  36 H36           -0.0328    -5.1266    -0.2041 H       
  37 H37           -0.0873    -3.1013     1.1874 H       
  38 H38           -0.6934    -2.5000    -0.3843 H       
  39 H39            3.6490    -4.5877    -1.6466 H       
  40 H40            2.8391    -6.1161    -1.2095 H       
  41 H41           -0.3142    -4.4331    -2.5187 H       
  42 H42            0.7632    -3.0215    -2.3014 H       
  43 H43            3.3321    -4.9138    -6.7990 H       
  44 H44            3.8029    -1.3363    -4.5185 H       
  45 H45            2.6858    -2.4047    -2.6026 H       
  46 H46            0.9440     5.4105    -0.3677 H       
  47 H47           -0.3877     4.2294    -0.3748 H       
  48 H48            0.9995     4.7166     2.3059 H       
  49 H49           -0.5117     6.7131     2.7115 H       
  50 H50           -1.0800     6.6389     0.9585 H       
  51 H51           -1.9541     4.2887     1.3413 H       
  52 H52           -1.3857     4.3628     3.0943 H       
@<TRIPOS>BOND
   1    1    2 1
   2    1    6 1
   3    1    8 2
   4    2    3 2
   5    2   30 1
   6    3    4 1
   7    3   10 1
   8    4    5 2
   9    4   31 1
  10    5    6 1
  11    5   32 1
  12    6    9 1
  13    7    8 1
  14    7    9 2
  15    9   26 1
  16   10   11 1
  17   10   14 1
  18   11   12 1
  19   11   33 1
  20   11   34 1
  21   12   13 1
  22   12   16 1
  23   12   35 1
  24   13   14 1
  25   13   17 1
  26   13   36 1
  27   14   37 1
  28   14   38 1
  29   15   16 1
  30   15   17 1
  31   15   18 1
  32   16   39 1
  33   16   40 1
  34   17   41 1
  35   17   42 1
  36   18   19 ar
  37   18   23 ar
  38   19   20 ar
  39   19   25 1
  40   20   21 ar
  41   20   43 1
  42   21   22 ar
  43   21   24 1
  44   22   23 ar
  45   22   44 1
  46   23   45 1
  47   26   27 1
  48   26   46 1
  49   26   47 1
  50   27   28 1
  51   27   29 1
  52   27   48 1
  53   28   29 1
  54   28   49 1
  55   28   50 1
  56   29   51 1
  57   29   52 1

#	End of record

