#	Name: ASD01180091
#	Creating user name:	WinNT
#	Creation time:	15. 06. 2019 19:06

#	Modifying user name:	WinNT
#	Modification time:	15. 06. 2019 19:06

#	Program:	/corina/corina34_cracker 3.40 0067  02.08.2006

@<TRIPOS>MOLECULE
ASD01180091
  61   63    0    0    0
SMALL
NO_CHARGES


@<TRIPOS>ATOM
   1 C1             0.9107     1.5334    -0.6245 C.2     
   2 C2             0.8052     0.0325    -0.5399 C.3     
   3 C3             2.2047    -0.5819    -0.6097 C.3     
   4 O4             1.9941     2.0579    -0.7299 O.2     
   5 O5            -0.1993     2.2873    -0.5884 O.3     
   6 N6             2.1021    -2.0410    -0.5274 N.am    
   7 C7             3.2162    -2.7983    -0.5692 C.2     
   8 C8             3.1127    -4.2708    -0.4862 C.ar    
   9 C9             4.2645    -5.0579    -0.5292 C.ar    
  10 C10            4.1610    -6.4314    -0.4508 C.ar    
  11 C11            2.9188    -7.0288    -0.3302 C.ar    
  12 C12            1.7732    -6.2543    -0.2870 C.ar    
  13 C13            1.8632    -4.8795    -0.3587 C.ar    
  14 O14            4.3061    -2.2707    -0.6752 O.2     
  15 C15            2.8133    -8.5297    -0.2461 C.3     
  16 C16            2.6311    -8.9471     1.2146 C.3     
  17 C17            3.8958    -8.6046     2.0045 C.3     
  18 C18            3.6651    -8.8966     3.4885 C.3     
  19 C19            5.0619    -9.4529     1.4931 C.3     
  20 N20            1.6622    -8.9831    -1.0307 N.pl3   
  21 N21            0.6763   -10.6008    -2.3931 N.ar    
  22 C22            1.6614   -10.2523    -1.5917 C.ar    
  23 C23            2.7100   -11.1341    -1.2926 C.ar    
  24 C24            2.7225   -12.3829    -1.8364 C.ar    
  25 C25            1.6644   -12.7495    -2.6938 C.ar    
  26 C26            1.6166   -14.0208    -3.2867 C.ar    
  27 C27            0.5819   -14.3473    -4.1102 C.ar    
  28 C28           -0.4356   -13.4355    -4.3762 C.ar    
  29 C29           -0.4222   -12.1800    -3.8130 C.ar    
  30 C30            0.6356   -11.8136    -2.9560 C.ar    
  31 O31           -1.4220   -11.2996    -4.0806 O.3     
  32 C32           -2.4595   -11.7430    -4.9576 C.3     
  33 H33            0.3327    -0.2460     0.4021 H       
  34 H34            0.2043    -0.3369    -1.3709 H       
  35 H35            2.6772    -0.3034    -1.5517 H       
  36 H36            2.8055    -0.2125     0.2213 H       
  37 H37           -0.0813     3.2454    -0.6459 H       
  38 H38            1.2324    -2.4621    -0.4429 H       
  39 H39            5.2346    -4.5929    -0.6241 H       
  40 H40            5.0514    -7.0416    -0.4840 H       
  41 H41            0.8066    -6.7268    -0.1928 H       
  42 H42            0.9685    -4.2758    -0.3203 H       
  43 H43            3.7232    -8.9807    -0.6420 H       
  44 H44            1.7809    -8.4147     1.6412 H       
  45 H45            2.4503   -10.0208     1.2658 H       
  46 H46            4.1306    -7.5481     1.8743 H       
  47 H47            3.4303    -9.9530     3.6187 H       
  48 H48            4.5661    -8.6526     4.0512 H       
  49 H49            2.8343    -8.2922     3.8528 H       
  50 H50            5.2882    -9.1764     0.4633 H       
  51 H51            5.9386    -9.2792     2.1170 H       
  52 H52            4.7896   -10.5075     1.5346 H       
  53 H53            0.9006    -8.3961    -1.1581 H       
  54 H54            3.5064   -10.8235    -0.6325 H       
  55 H55            3.5225   -13.0745    -1.6170 H       
  56 H56            2.3991   -14.7388    -3.0905 H       
  57 H57            0.5508   -15.3271    -4.5634 H       
  58 H58           -1.2455   -13.7167    -5.0330 H       
  59 H59           -3.1917   -10.9459    -5.0863 H       
  60 H60           -2.0308   -12.0024    -5.9256 H       
  61 H61           -2.9473   -12.6189    -4.5297 H       
@<TRIPOS>BOND
   1    1    2 1
   2    1    4 2
   3    1    5 1
   4    2    3 1
   5    2   33 1
   6    2   34 1
   7    3    6 1
   8    3   35 1
   9    3   36 1
  10    5   37 1
  11    6    7 am
  12    6   38 1
  13    7    8 1
  14    7   14 2
  15    8    9 ar
  16    8   13 ar
  17    9   10 ar
  18    9   39 1
  19   10   11 ar
  20   10   40 1
  21   11   12 ar
  22   11   15 1
  23   12   13 ar
  24   12   41 1
  25   13   42 1
  26   15   16 1
  27   15   20 1
  28   15   43 1
  29   16   17 1
  30   16   44 1
  31   16   45 1
  32   17   18 1
  33   17   19 1
  34   17   46 1
  35   18   47 1
  36   18   48 1
  37   18   49 1
  38   19   50 1
  39   19   51 1
  40   19   52 1
  41   20   22 1
  42   20   53 1
  43   21   22 ar
  44   21   30 ar
  45   22   23 ar
  46   23   24 ar
  47   23   54 1
  48   24   25 ar
  49   24   55 1
  50   25   26 ar
  51   25   30 ar
  52   26   27 ar
  53   26   56 1
  54   27   28 ar
  55   27   57 1
  56   28   29 ar
  57   28   58 1
  58   29   30 ar
  59   29   31 1
  60   31   32 1
  61   32   59 1
  62   32   60 1
  63   32   61 1

#	End of record

