#	Name: ASD01911717
#	Creating user name:	WinNT
#	Creation time:	15. 06. 2019 19:58

#	Modifying user name:	WinNT
#	Modification time:	15. 06. 2019 19:58

#	Program:	/corina/corina34_cracker 3.40 0067  02.08.2006

@<TRIPOS>MOLECULE
ASD01911717
  30   30    0    0    0
SMALL
NO_CHARGES


@<TRIPOS>ATOM
   1 C1            -0.0158     1.3135     0.0093 C.ar    
   2 N2             0.0021    -0.0041     0.0020 N.ar    
   3 C3             1.1523    -0.6717    -0.0125 C.ar    
   4 C4             2.3456     0.0396    -0.0201 C.ar    
   5 C5             2.2846     1.4306    -0.0120 C.ar    
   6 N6             1.0930     2.0246     0.0025 N.ar    
   7 N7             3.4469     2.1858    -0.0190 N.3     
   8 C8             3.1412     3.6231    -0.0084 C.3     
   9 C9             4.4465     4.4191     0.0637 C.3     
  10 N10            5.2930     4.0721    -1.0863 N.3     
  11 C11            5.5987     2.6347    -1.0970 C.3     
  12 C12            4.2934     1.8388    -1.1691 C.3     
  13 O13            1.1602    -2.0271    -0.0194 O.3     
  14 C14           -0.1092    -2.6833    -0.0104 C.3     
  15 H15           -0.9669     1.8251     0.0165 H       
  16 H16            3.2961    -0.4731    -0.0315 H       
  17 H17            2.6040     3.8874    -0.9193 H       
  18 H18            2.5241     3.8573     0.8590 H       
  19 H19            4.2236     5.4858     0.0425 H       
  20 H20            4.9706     4.1750     0.9878 H       
  21 H21            4.8604     4.3562    -1.9525 H       
  22 H22            6.2158     2.4006    -1.9644 H       
  23 H23            6.1359     2.3704    -0.1861 H       
  24 H24            4.5163     0.7720    -1.1479 H       
  25 H25            3.7693     2.0828    -2.0932 H       
  26 H26            0.0399    -3.7630    -0.0173 H       
  27 H27           -0.6592    -2.3982     0.8864 H       
  28 H28           -0.6765    -2.3892    -0.8934 H       
  29 Cl29          11.2158    10.4858     5.9878 Cl      
  30 H30           11.2158    11.8558     5.9878 H       
@<TRIPOS>BOND
   1    1    2 ar
   2    1    6 ar
   3    1   15 1
   4    2    3 ar
   5    3    4 ar
   6    3   13 1
   7    4    5 ar
   8    4   16 1
   9    5    6 ar
  10    5    7 1
  11    7    8 1
  12    7   12 1
  13    8    9 1
  14    8   17 1
  15    8   18 1
  16    9   10 1
  17    9   19 1
  18    9   20 1
  19   10   11 1
  20   10   21 1
  21   11   12 1
  22   11   22 1
  23   11   23 1
  24   12   24 1
  25   12   25 1
  26   13   14 1
  27   14   26 1
  28   14   27 1
  29   14   28 1
  30   29   30 1

#	End of record

