#	Name: ASD03740158
#	Creating user name:	WinNT
#	Creation time:	15. 06. 2019 20:46

#	Modifying user name:	WinNT
#	Modification time:	15. 06. 2019 20:46

#	Program:	/corina/corina34_cracker 3.40 0067  02.08.2006

@<TRIPOS>MOLECULE
ASD03740158
  49   51    0    0    0
SMALL
NO_CHARGES


@<TRIPOS>ATOM
   1 Cl1            0.0000     0.0000     0.0000 Cl      
   2 H2             0.0000     1.3700     0.0000 H       
   3 C3             5.9454    11.4905    10.1141 C.ar    
   4 C4             5.9642    10.1011    10.1064 C.ar    
   5 C5             7.1468     9.4177    10.0919 C.ar    
   6 C6             8.3516    10.1169    10.0842 C.ar    
   7 C7             8.3340    11.5247    10.0915 C.ar    
   8 C8             7.1104    12.2017    10.1068 C.ar    
   9 N9             9.6684     9.7374    10.0700 N.pl3   
  10 N10           10.4755    10.8797    10.0682 N.2     
  11 C11            9.7325    11.9527    10.0806 C.2     
  12 C12           10.1535     8.3551    10.0589 C.3     
  13 C13           10.3064     7.8878     8.6344 C.ar    
  14 C14           11.5061     8.0699     7.9723 C.ar    
  15 C15           11.6464     7.6413     6.6656 C.ar    
  16 C16           10.5871     7.0301     6.0211 C.ar    
  17 C17            9.3877     6.8472     6.6836 C.ar    
  18 C18            9.2488     7.2719     7.9917 C.ar    
  19 O19           10.1783    13.2369    10.0825 O.3     
  20 C20           11.5938    13.4323    10.0703 C.3     
  21 C21           11.9018    14.9309    10.0745 C.3     
  22 N22           11.4387    15.5225    11.3369 N.3     
  23 C23           11.9258    16.9066    11.4819 C.3     
  24 C24           10.6887    17.8089    11.6740 C.3     
  25 C25            9.6126    16.8202    12.1950 C.3     
  26 C26            9.9619    15.5334    11.4065 C.3     
  27 H27            5.0000    12.0126    10.1214 H       
  28 H28            5.0325     9.5549    10.1124 H       
  29 H29            7.1477     8.3377    10.0868 H       
  30 H30            7.0874    13.2814    10.1121 H       
  31 H31           11.1184     8.3046    10.5635 H       
  32 H32            9.4389     7.7151    10.5765 H       
  33 H33           12.3337     8.5474     8.4757 H       
  34 H34           12.5835     7.7843     6.1480 H       
  35 H35           10.6965     6.6959     5.0000 H       
  36 H36            8.5600     6.3700     6.1800 H       
  37 H37            8.3117     7.1290     8.5093 H       
  38 H38           12.0322    12.9688    10.9541 H       
  39 H39           12.0157    12.9771     9.1743 H       
  40 H40           12.9769    15.0812     9.9757 H       
  41 H41           11.3899    15.4094     9.2396 H       
  42 H42           12.5778    16.9809    12.3522 H       
  43 H43           12.4668    17.2052    10.5840 H       
  44 H44           10.8888    18.5851    12.4126 H       
  45 H45           10.3812    18.2483    10.7251 H       
  46 H46            9.7159    16.6607    13.2683 H       
  47 H47            8.6098    17.1691    11.9484 H       
  48 H48            9.5351    15.5748    10.4044 H       
  49 H49            9.6006    14.6530    11.9378 H       
@<TRIPOS>BOND
   1    1    2 1
   2    3    4 ar
   3    3    8 ar
   4    3   27 1
   5    4    5 ar
   6    4   28 1
   7    5    6 ar
   8    5   29 1
   9    6    7 ar
  10    6    9 1
  11    7    8 ar
  12    7   11 1
  13    8   30 1
  14    9   10 1
  15    9   12 1
  16   10   11 2
  17   11   19 1
  18   12   13 1
  19   12   31 1
  20   12   32 1
  21   13   14 ar
  22   13   18 ar
  23   14   15 ar
  24   14   33 1
  25   15   16 ar
  26   15   34 1
  27   16   17 ar
  28   16   35 1
  29   17   18 ar
  30   17   36 1
  31   18   37 1
  32   19   20 1
  33   20   21 1
  34   20   38 1
  35   20   39 1
  36   21   22 1
  37   21   40 1
  38   21   41 1
  39   22   23 1
  40   22   26 1
  41   23   24 1
  42   23   42 1
  43   23   43 1
  44   24   25 1
  45   24   44 1
  46   24   45 1
  47   25   26 1
  48   25   46 1
  49   25   47 1
  50   26   48 1
  51   26   49 1

#	End of record

