#	Name: ASD03092531
#	Creating user name:	WinNT
#	Creation time:	15. 06. 2019 20:32

#	Modifying user name:	WinNT
#	Modification time:	15. 06. 2019 20:32

#	Program:	/corina/corina34_cracker 3.40 0067  02.08.2006

@<TRIPOS>MOLECULE
ASD03092531
  32   34    0    0    0
SMALL
NO_CHARGES


@<TRIPOS>ATOM
   1 O1            -0.0143     1.2047     0.0087 O.3     
   2 N2             0.0021    -0.0041     0.0020 N.2     
   3 C3             1.2152    -0.4747    -0.0121 C.2     
   4 C4             2.0809     0.6416    -0.0144 C.2     
   5 C5             1.2318     1.7144    -0.0005 C.2     
   6 C6             1.6061     3.1413     0.0029 C.2     
   7 O7             2.7788     3.4622    -0.0070 O.2     
   8 N8             0.6481     4.0892     0.0168 N.am    
   9 C9             1.0198     5.5063     0.0202 C.3     
  10 N10           -3.6307     8.6666     0.3542 N.pl3   
  11 C11           -3.7571     8.7545     1.7138 C.2     
  12 C12           -2.7624     8.0788     2.3105 C.2     
  13 C13           -1.9311     7.5119     1.2459 C.ar    
  14 C14           -0.7761     6.7273     1.2301 C.ar    
  15 C15           -0.2270     6.3526     0.0365 C.ar    
  16 C16           -0.8082     6.7456    -1.1615 C.ar    
  17 C17           -1.9474     7.5200    -1.1690 C.ar    
  18 C18           -2.5235     7.9131     0.0348 C.ar    
  19 C19           -4.8506     9.4999     2.4347 C.3     
  20 H20            1.5038    -1.5154    -0.0199 H       
  21 H21            3.1608     0.6469    -0.0243 H       
  22 H22           -0.2875     3.8332     0.0247 H       
  23 H23            1.6176     5.7230     0.9055 H       
  24 H24            1.6003     5.7317    -0.8744 H       
  25 H25           -4.2337     9.0714    -0.2888 H       
  26 H26           -2.6049     7.9732     3.3737 H       
  27 H27           -0.3180     6.4186     2.1581 H       
  28 H28           -0.3624     6.4414    -2.0970 H       
  29 H29           -2.3918     7.8209    -2.1062 H       
  30 H30           -5.6924     8.8300     2.6100 H       
  31 H31           -4.4726     9.8660     3.3892 H       
  32 H32           -5.1779    10.3429     1.8261 H       
@<TRIPOS>BOND
   1    1    2 1
   2    1    5 1
   3    2    3 2
   4    3    4 1
   5    3   20 1
   6    4    5 2
   7    4   21 1
   8    5    6 1
   9    6    7 2
  10    6    8 am
  11    8    9 1
  12    8   22 1
  13    9   15 1
  14    9   23 1
  15    9   24 1
  16   10   11 1
  17   10   18 1
  18   10   25 1
  19   11   12 2
  20   11   19 1
  21   12   13 1
  22   12   26 1
  23   13   14 ar
  24   13   18 ar
  25   14   15 ar
  26   14   27 1
  27   15   16 ar
  28   16   17 ar
  29   16   28 1
  30   17   18 ar
  31   17   29 1
  32   19   30 1
  33   19   31 1
  34   19   32 1

#	End of record

