#	Name: ASD06350003
#	Creating user name:	WinNT
#	Creation time:	15. 06. 2019 21:06

#	Modifying user name:	WinNT
#	Modification time:	15. 06. 2019 21:06

#	Program:	/corina/corina34_cracker 3.40 0067  02.08.2006

@<TRIPOS>MOLECULE
ASD06350003
  23   24    0    0    0
SMALL
NO_CHARGES


@<TRIPOS>ATOM
   1 N1             0.7610     1.3373    -0.4039 N.pl3   
   2 C2             0.5832    -0.0471    -0.3069 C.ar    
   3 C3             1.6433    -0.9040    -0.5725 C.ar    
   4 C4             1.4669    -2.2702    -0.4766 C.ar    
   5 C5             0.2311    -2.7868    -0.1155 C.ar    
   6 C6            -0.8283    -1.9315     0.1500 C.ar    
   7 C7            -0.6519    -0.5648     0.0605 C.ar    
   8 O8             0.0581    -4.1324    -0.0222 O.3     
   9 C9             0.5826    -4.7683     1.0534 C.ar    
  10 N10            1.1509    -4.0763     2.0350 N.ar    
  11 C11            1.6625    -4.6897     3.0831 C.ar    
  12 N12            1.6342    -6.0015     3.2030 N.ar    
  13 C13            1.0840    -6.7604     2.2646 C.ar    
  14 C14            0.5291    -6.1573     1.1495 C.ar    
  15 Cl15           1.0546    -8.4877     2.4362 Cl      
  16 H16            1.6249     1.6988    -0.6567 H       
  17 H17            0.0193     1.9354    -0.2222 H       
  18 H18            2.6052    -0.5020    -0.8544 H       
  19 H19            2.2912    -2.9368    -0.6832 H       
  20 H20           -1.7900    -2.3345     0.4310 H       
  21 H21           -1.4767     0.1010     0.2677 H       
  22 H22            2.1181    -4.1007     3.8654 H       
  23 H23            0.0741    -6.7491     0.3690 H       
@<TRIPOS>BOND
   1    1    2 1
   2    1   16 1
   3    1   17 1
   4    2    3 ar
   5    2    7 ar
   6    3    4 ar
   7    3   18 1
   8    4    5 ar
   9    4   19 1
  10    5    6 ar
  11    5    8 1
  12    6    7 ar
  13    6   20 1
  14    7   21 1
  15    8    9 1
  16    9   10 ar
  17    9   14 ar
  18   10   11 ar
  19   11   12 ar
  20   11   22 1
  21   12   13 ar
  22   13   14 ar
  23   13   15 1
  24   14   23 1

#	End of record

