#	Name: ASD01230597
#	Creating user name:	WinNT
#	Creation time:	15. 06. 2019 19:14

#	Modifying user name:	WinNT
#	Modification time:	15. 06. 2019 19:14

#	Program:	/corina/corina34_cracker 3.40 0067  02.08.2006

@<TRIPOS>MOLECULE
ASD01230597
  44   46    0    0    0
SMALL
NO_CHARGES


@<TRIPOS>ATOM
   1 S1            -0.0203     1.6432     0.0111 S.o2    
   2 N2             0.0021    -0.0041     0.0020 N.am    
   3 C3             1.0582    -0.7115     0.0766 C.2     
   4 N4             2.3239    -0.2014     0.2156 N.pl3   
   5 C5             2.5547     1.1284     0.7685 C.3     
   6 C6             1.7187     2.1517    -0.0028 C.3     
   7 C7             0.9691    -2.2282     0.0263 C.3     
   8 C8             2.0432    -2.7791     0.9676 C.3     
   9 C9             3.4382    -2.3754     0.5096 C.3     
  10 C10            3.4443    -1.0396    -0.2239 C.3     
  11 O11           -0.3236    -2.6539     0.4617 O.3     
  12 C12           -1.2852    -2.7607    -0.5900 C.3     
  13 C13           -2.6045    -3.2144    -0.0203 C.ar    
  14 C14           -3.5268    -2.2813     0.4151 C.ar    
  15 C15           -4.7370    -2.6974     0.9377 C.ar    
  16 C16           -5.0251    -4.0466     1.0246 C.ar    
  17 C17           -4.1032    -4.9797     0.5883 C.ar    
  18 C18           -2.8947    -4.5634     0.0617 C.ar    
  19 C19           -4.4170    -6.4506     0.6835 C.3     
  20 F20           -5.6885    -6.6209     1.2416 F       
  21 F21           -4.3894    -7.0169    -0.5955 F       
  22 F22           -3.4645    -7.0793     1.4926 F       
  23 C23           -5.7421    -1.6802     1.4133 C.3     
  24 F24           -6.5864    -1.3287     0.3547 F       
  25 F25           -6.5013    -2.2259     2.4539 F       
  26 F26           -5.0715    -0.5415     1.8728 F       
  27 O27           -0.6472     1.9881    -1.2166 O.2     
  28 O28           -0.6237     1.9749     1.2541 O.2     
  29 H29            2.2653     1.1405     1.8193 H       
  30 H30            3.6113     1.3809     0.6793 H       
  31 H31            2.0726     2.2083    -1.0322 H       
  32 H32            1.8152     3.1296     0.4690 H       
  33 H33            1.1525    -2.5769    -0.9900 H       
  34 H34            1.8709    -2.3915     1.9717 H       
  35 H35            1.9753    -3.8668     0.9892 H       
  36 H36            4.0887    -2.3026     1.3812 H       
  37 H37            3.8279    -3.1455    -0.1561 H       
  38 H38            3.3602    -1.2183    -1.2958 H       
  39 H39            4.3816    -0.5221    -0.0194 H       
  40 H40           -1.4105    -1.7891    -1.0678 H       
  41 H41           -0.9389    -3.4858    -1.3266 H       
  42 H42           -3.3017    -1.2272     0.3472 H       
  43 H43           -5.9703    -4.3717     1.4336 H       
  44 H44           -2.1760    -5.2923    -0.2825 H       
@<TRIPOS>BOND
   1    1    2 am
   2    1    6 1
   3    1   27 2
   4    1   28 2
   5    2    3 2
   6    3    4 1
   7    3    7 1
   8    4    5 1
   9    4   10 1
  10    5    6 1
  11    5   29 1
  12    5   30 1
  13    6   31 1
  14    6   32 1
  15    7    8 1
  16    7   11 1
  17    7   33 1
  18    8    9 1
  19    8   34 1
  20    8   35 1
  21    9   10 1
  22    9   36 1
  23    9   37 1
  24   10   38 1
  25   10   39 1
  26   11   12 1
  27   12   13 1
  28   12   40 1
  29   12   41 1
  30   13   14 ar
  31   13   18 ar
  32   14   15 ar
  33   14   42 1
  34   15   16 ar
  35   15   23 1
  36   16   17 ar
  37   16   43 1
  38   17   18 ar
  39   17   19 1
  40   18   44 1
  41   19   20 1
  42   19   21 1
  43   19   22 1
  44   23   24 1
  45   23   25 1
  46   23   26 1

#	End of record

