#	Name: ASD05313108
#	Creating user name:	WinNT
#	Creation time:	15. 06. 2019 20:58

#	Modifying user name:	WinNT
#	Modification time:	15. 06. 2019 20:58

#	Program:	/corina/corina34_cracker 3.40 0067  02.08.2006

@<TRIPOS>MOLECULE
ASD05313108
  37   40    0    0    0
SMALL
NO_CHARGES


@<TRIPOS>ATOM
   1 C1            -0.0722     0.8183     1.0236 C.2     
   2 C2             0.1137    -0.6182     0.5964 C.3     
   3 N3             0.9292     1.7308     1.0499 N.pl3   
   4 N4             1.4569    -0.7181    -0.0051 N.am    
   5 C5             2.5711    -0.0361     0.6707 C.3     
   6 C6             2.3160     1.4759     0.6637 C.3     
   7 N7            -0.9050     2.6413     1.7079 N.2     
   8 N8            -1.1580     1.4093     1.4263 N.2     
   9 C9             0.3710     2.8908     1.4945 C.2     
  10 C10            2.9863     5.4456     1.6310 C.ar    
  11 N11            2.3675     4.2982     1.4482 N.ar    
  12 C12            1.0642     4.1809     1.7011 C.ar    
  13 C13            0.3630     5.2991     2.1649 C.ar    
  14 C14            1.0582     6.4818     2.3408 C.ar    
  15 N15            2.3535     6.5169     2.0668 N.ar    
  16 C16            1.6574    -1.4148    -1.1413 C.2     
  17 O17            2.7493    -1.4046    -1.6759 O.2     
  18 C18            0.5507    -2.1907    -1.7370 C.ar    
  19 C19            0.3193    -2.1392    -3.1145 C.ar    
  20 C20           -0.7169    -2.8669    -3.6645 C.ar    
  21 C21           -1.5254    -3.6460    -2.8542 C.ar    
  22 C22           -1.3005    -3.7006    -1.4883 C.ar    
  23 C23           -0.2653    -2.9831    -0.9273 C.ar    
  24 Cl24          -2.8269    -4.5579    -3.5529 Cl      
  25 Cl25           1.3321    -1.1622    -4.1311 Cl      
  26 H26            0.0443    -1.2759     1.4629 H       
  27 H27           -0.6442    -0.8886    -0.1388 H       
  28 H28            2.6432    -0.3885     1.6997 H       
  29 H29            3.5017    -0.2508     0.1454 H       
  30 H30            2.4939     1.8707    -0.3365 H       
  31 H31            2.9866     1.9616     1.3726 H       
  32 H32            4.0440     5.5100     1.4221 H       
  33 H33           -0.6938     5.2405     2.3797 H       
  34 H34            0.5508     7.3662     2.6969 H       
  35 H35           -0.8976    -2.8281    -4.7285 H       
  36 H36           -1.9348    -4.3103    -0.8620 H       
  37 H37           -0.0885    -3.0308     0.1370 H       
@<TRIPOS>BOND
   1    1    2 1
   2    1    3 1
   3    1    8 2
   4    2    4 1
   5    2   26 1
   6    2   27 1
   7    3    6 1
   8    3    9 1
   9    4    5 1
  10    4   16 am
  11    5    6 1
  12    5   28 1
  13    5   29 1
  14    6   30 1
  15    6   31 1
  16    7    8 1
  17    7    9 2
  18    9   12 1
  19   10   11 ar
  20   10   15 ar
  21   10   32 1
  22   11   12 ar
  23   12   13 ar
  24   13   14 ar
  25   13   33 1
  26   14   15 ar
  27   14   34 1
  28   16   17 2
  29   16   18 1
  30   18   19 ar
  31   18   23 ar
  32   19   20 ar
  33   19   25 1
  34   20   21 ar
  35   20   35 1
  36   21   22 ar
  37   21   24 1
  38   22   23 ar
  39   22   36 1
  40   23   37 1

#	End of record

