#	Name: ASD01882720
#	Creating user name:	WinNT
#	Creation time:	15. 06. 2019 19:45

#	Modifying user name:	WinNT
#	Modification time:	15. 06. 2019 19:45

#	Program:	/corina/corina34_cracker 3.40 0067  02.08.2006

@<TRIPOS>MOLECULE
ASD01882720
  61   64    0    0    0
SMALL
NO_CHARGES


@<TRIPOS>ATOM
   1 C1            -0.0168     1.3899     0.0097 C.ar    
   2 C2             0.0021    -0.0041     0.0020 C.ar    
   3 C3             1.2229    -0.6826    -0.0133 C.ar    
   4 C4             2.4094     0.0267    -0.0203 C.ar    
   5 C5             2.3939     1.4104    -0.0128 C.ar    
   6 C6             1.1810     2.0970     0.0020 C.ar    
   7 C7             1.1675     3.5811     0.0097 C.ar    
   8 C8             2.3661     4.2911     0.0020 C.ar    
   9 C9             2.3477     5.6713     0.0087 C.ar    
  10 C10            1.1424     6.3493     0.0229 C.ar    
  11 C11           -0.0508     5.6493     0.0305 C.ar    
  12 C12           -0.0441     4.2693     0.0186 C.ar    
  13 C13           -1.2662    -0.7619     0.0105 C.2     
  14 C14            3.6435     6.4408     0.0009 C.3     
  15 O15            4.0412     6.6903    -1.3487 O.3     
  16 C16            5.1987     7.3794    -1.5338 C.ar    
  17 C17            5.6383     7.6599    -2.8177 C.ar    
  18 C18            5.9342     7.8053    -0.4358 C.ar    
  19 C19            7.1105     8.5061    -0.6165 C.ar    
  20 C20            6.8182     8.3629    -3.0038 C.ar    
  21 N21            7.5077     8.7884    -4.1368 N.am    
  22 C22            7.5590     8.7856    -1.8979 C.ar    
  23 N23            8.6775     9.4547    -2.3948 N.am    
  24 C24            8.6169     9.4399    -3.7397 C.2     
  25 C25            7.0958     8.5649    -5.5248 C.3     
  26 C26            9.7339    10.0741    -1.5906 C.3     
  27 C27           10.8382     9.0494    -1.3230 C.3     
  28 C28           11.4237     8.5715    -2.6533 C.3     
  29 C29           11.9414     9.6962    -0.4832 C.3     
  30 C30           10.2536     7.8559    -0.5650 C.3     
  31 O31            9.4406     9.9388    -4.4838 O.2     
  32 O32           -2.3271    -0.1704     0.0243 O.2     
  33 O33           -1.2461    -2.1088     0.0031 O.3     
  34 F34            3.5882    -0.6333    -0.0342 F       
  35 H35           -0.9583     1.9190     0.0170 H       
  36 H36            1.2399    -1.7624    -0.0192 H       
  37 H37            3.3238     1.9596    -0.0183 H       
  38 H38            3.3079     3.7626    -0.0087 H       
  39 H39            1.1326     7.4293     0.0284 H       
  40 H40           -0.9892     6.1837     0.0416 H       
  41 H41           -0.9762     3.7238     0.0200 H       
  42 H42            3.5060     7.3891     0.5204 H       
  43 H43            4.4147     5.8587     0.5053 H       
  44 H44            5.0633     7.3314    -3.6708 H       
  45 H45            5.5850     7.5881     0.5628 H       
  46 H46            7.6801     8.8362     0.2397 H       
  47 H47            6.4697     9.3934    -5.8559 H       
  48 H48            7.9792     8.5005    -6.1601 H       
  49 H49            6.5320     7.6343    -5.5911 H       
  50 H50           10.1504    10.9244    -2.1307 H       
  51 H51            9.3167    10.4146    -0.6429 H       
  52 H52           11.8402     9.4218    -3.1933 H       
  53 H53           12.2104     7.8415    -2.4626 H       
  54 H54           10.6377     8.1107    -3.2516 H       
  55 H55           11.5243    10.0367     0.4645 H       
  56 H56           12.7281     8.9662    -0.2925 H       
  57 H57           12.3579    10.5465    -1.0232 H       
  58 H58            9.4676     7.3951    -1.1633 H       
  59 H59           11.0403     7.1259    -0.3743 H       
  60 H60            9.8364     8.1964     0.3827 H       
  61 H61           -2.1011    -2.5607     0.0092 H       
@<TRIPOS>BOND
   1    1    2 ar
   2    1    6 ar
   3    1   35 1
   4    2    3 ar
   5    2   13 1
   6    3    4 ar
   7    3   36 1
   8    4    5 ar
   9    4   34 1
  10    5    6 ar
  11    5   37 1
  12    6    7 1
  13    7    8 ar
  14    7   12 ar
  15    8    9 ar
  16    8   38 1
  17    9   10 ar
  18    9   14 1
  19   10   11 ar
  20   10   39 1
  21   11   12 ar
  22   11   40 1
  23   12   41 1
  24   13   32 2
  25   13   33 1
  26   14   15 1
  27   14   42 1
  28   14   43 1
  29   15   16 1
  30   16   18 ar
  31   16   17 ar
  32   17   20 ar
  33   17   44 1
  34   18   19 ar
  35   18   45 1
  36   19   22 ar
  37   19   46 1
  38   20   22 ar
  39   20   21 1
  40   21   24 am
  41   21   25 1
  42   22   23 1
  43   23   24 am
  44   23   26 1
  45   24   31 2
  46   25   47 1
  47   25   48 1
  48   25   49 1
  49   26   27 1
  50   26   50 1
  51   26   51 1
  52   27   28 1
  53   27   29 1
  54   27   30 1
  55   28   52 1
  56   28   53 1
  57   28   54 1
  58   29   55 1
  59   29   56 1
  60   29   57 1
  61   30   58 1
  62   30   59 1
  63   30   60 1
  64   33   61 1

#	End of record

