#	Name: ASD08150229
#	Creating user name:	WinNT
#	Creation time:	15. 06. 2019 21:15

#	Modifying user name:	WinNT
#	Modification time:	15. 06. 2019 21:15

#	Program:	/corina/corina34_cracker 3.40 0067  02.08.2006

@<TRIPOS>MOLECULE
ASD08150229
  50   54    0    0    0
SMALL
NO_CHARGES


@<TRIPOS>ATOM
   1 N1            -0.0157     1.2952    -0.0517 N.2     
   2 C2             0.0018    -0.0026    -0.0878 C.2     
   3 N3             1.1485    -0.7346    -0.1052 N.am    
   4 C4             2.3559    -0.1234    -0.0850 C.2     
   5 C5             2.3702     1.3460    -0.0441 C.ar    
   6 C6             3.5601     2.0709    -0.0203 C.ar    
   7 C7             3.5158     3.4472     0.0183 C.ar    
   8 C8             2.2979     4.1146     0.0337 C.ar    
   9 C9             1.1111     3.4173     0.0107 C.ar    
  10 C10            1.1296     2.0215    -0.0285 C.ar    
  11 O11            3.3900    -0.7656    -0.0998 O.2     
  12 C12            1.0789    -2.1329    -0.1439 C.ar    
  13 C13            1.0414    -2.8608     1.0384 C.ar    
  14 C14            0.9415    -4.8953    -0.2203 C.ar    
  15 C15            1.0415    -2.7941    -1.3642 C.ar    
  16 C16            0.9729    -4.2393     0.9969 C.ar    
  17 C17            0.9729    -4.1733    -1.3990 C.ar    
  18 C18            1.0761    -2.1468     2.3651 C.3     
  19 C19            4.8858     1.3543    -0.0362 C.3     
  20 C20           -1.3149    -0.7353    -0.1111 C.3     
  21 S21           -2.6721     0.4618    -0.0808 S.3     
  22 N22           -5.9131     1.0999    -0.0708 N.2     
  23 C23           -7.2103     1.0000    -0.0770 C.2     
  24 N24           -7.5758    -0.3140    -0.1146 N.pl3   
  25 C25           -6.4249    -1.0605    -0.1324 C.ar    
  26 N26           -6.1522    -2.3612    -0.1683 N.ar    
  27 C27           -4.8992    -2.7867    -0.1773 C.ar    
  28 N28           -3.8678    -1.9527    -0.1507 N.ar    
  29 C29           -4.0496    -0.6365    -0.1144 C.ar    
  30 C30           -5.3650    -0.1395    -0.1040 C.ar    
  31 N31           -4.6561    -4.1499    -0.2146 N.pl3   
  32 H32            4.4361     4.0122     0.0372 H       
  33 H33            2.2816     5.1940     0.0644 H       
  34 H34            0.1701     3.9473     0.0234 H       
  35 H35            0.8882    -5.9736    -0.2501 H       
  36 H36            1.0656    -2.2306    -2.2852 H       
  37 H37            0.9440    -4.8059     1.9159 H       
  38 H38            0.9487    -4.6884    -2.3479 H       
  39 H39            0.0580    -1.9233     2.6841 H       
  40 H40            1.5580    -2.7829     3.1075 H       
  41 H41            1.6372    -1.2179     2.2633 H       
  42 H42            5.1535     1.1083    -1.0638 H       
  43 H43            5.6522     1.9986     0.3945 H       
  44 H44            4.8105     0.4379     0.5490 H       
  45 H45           -1.3804    -1.3360    -1.0183 H       
  46 H46           -1.3844    -1.3855     0.7610 H       
  47 H47           -7.8963     1.8339    -0.0555 H       
  48 H48           -8.4830    -0.6574    -0.1265 H       
  49 H49           -5.3980    -4.7745    -0.2336 H       
  50 H50           -3.7439    -4.4799    -0.2217 H       
@<TRIPOS>BOND
   1    1    2 2
   2    1   10 1
   3    2    3 1
   4    2   20 1
   5    3    4 am
   6    3   12 1
   7    4    5 1
   8    4   11 2
   9    5    6 ar
  10    5   10 ar
  11    6    7 ar
  12    6   19 1
  13    7    8 ar
  14    7   32 1
  15    8    9 ar
  16    8   33 1
  17    9   10 ar
  18    9   34 1
  19   12   13 ar
  20   12   15 ar
  21   13   16 ar
  22   13   18 1
  23   14   16 ar
  24   14   17 ar
  25   14   35 1
  26   15   17 ar
  27   15   36 1
  28   16   37 1
  29   17   38 1
  30   18   39 1
  31   18   40 1
  32   18   41 1
  33   19   42 1
  34   19   43 1
  35   19   44 1
  36   20   21 1
  37   20   45 1
  38   20   46 1
  39   21   29 1
  40   22   23 2
  41   22   30 1
  42   23   24 1
  43   23   47 1
  44   24   25 1
  45   24   48 1
  46   25   26 ar
  47   25   30 ar
  48   26   27 ar
  49   27   28 ar
  50   27   31 1
  51   28   29 ar
  52   29   30 ar
  53   31   49 1
  54   31   50 1

#	End of record

