#	Name: ASD07300994
#	Creating user name:	WinNT
#	Creation time:	15. 06. 2019 21:10

#	Modifying user name:	WinNT
#	Modification time:	15. 06. 2019 21:10

#	Program:	/corina/corina34_cracker 3.40 0067  02.08.2006

@<TRIPOS>MOLECULE
ASD07300994
  23   24    0    0    0
SMALL
NO_CHARGES


@<TRIPOS>ATOM
   1 C1            -0.0624     1.2982    -0.0681 C.2     
   2 C2             0.0511    -0.0593     0.1307 C.2     
   3 C3             1.3680    -0.5143     0.1613 C.2     
   4 C4             2.2941     0.4230    -0.0043 C.2     
   5 S5             1.5441     1.9978    -0.2175 S.3     
   6 C6            -1.3320     2.0472    -0.1493 C.ar    
   7 C7            -1.5604     3.1347     0.6968 C.ar    
   8 C8            -2.7489     3.8299     0.6154 C.ar    
   9 C9            -3.7137     3.4522    -0.3018 C.ar    
  10 C10           -3.4941     2.3758    -1.1431 C.ar    
  11 C11           -2.3079     1.6751    -1.0766 C.ar    
  12 B12           -1.1882    -1.0069     0.3072 Du      
  13 O13           -2.4838    -0.4550     0.4894 O.3     
  14 O14           -1.0135    -2.4159     0.2845 O.3     
  15 H15            1.6175    -1.5545     0.3094 H       
  16 H16            3.3589     0.2427    -0.0072 H       
  17 H17           -0.8083     3.4303     1.4134 H       
  18 H18           -2.9270     4.6708     1.2693 H       
  19 H19           -4.6427     3.9999    -0.3610 H       
  20 H20           -4.2515     2.0865    -1.8567 H       
  21 H21           -2.1358     0.8382    -1.7372 H       
  22 H22           -3.1920    -1.1130     0.5125 H       
  23 H23           -1.8330    -2.9158     0.4010 H       
@<TRIPOS>BOND
   1    1    2 2
   2    1    5 1
   3    1    6 1
   4    2    3 1
   5    2   12 1
   6    3    4 2
   7    3   15 1
   8    4    5 1
   9    4   16 1
  10    6    7 ar
  11    6   11 ar
  12    7    8 ar
  13    7   17 1
  14    8    9 ar
  15    8   18 1
  16    9   10 ar
  17    9   19 1
  18   10   11 ar
  19   10   20 1
  20   11   21 1
  21   12   13 1
  22   12   14 1
  23   13   22 1
  24   14   23 1

#	End of record

