#	Name: ASD01811762
#	Creating user name:	WinNT
#	Creation time:	15. 06. 2019 19:27

#	Modifying user name:	WinNT
#	Modification time:	15. 06. 2019 19:27

#	Program:	/corina/corina34_cracker 3.40 0067  02.08.2006

@<TRIPOS>MOLECULE
ASD01811762
  55   59    0    0    0
SMALL
NO_CHARGES


@<TRIPOS>ATOM
   1 C1            -0.0650     1.4193     0.0286 C.ar    
   2 C2            -0.0004     0.0288     0.0170 C.ar    
   3 C3            -1.1696    -0.7224     0.0250 C.ar    
   4 C4            -2.3965    -0.0973     0.0444 C.ar    
   5 C5            -2.4677     1.2987     0.0566 C.ar    
   6 C6            -1.2867     2.0478     0.0537 C.ar    
   7 Cl7            1.3955     2.3577     0.0186 Cl      
   8 O8             1.2055    -0.5939    -0.0025 O.3     
   9 C9             1.8457    -0.8079     1.2570 C.3     
  10 C10           -1.0946    -2.2275     0.0119 C.3     
  11 C11           -0.9833    -2.7125    -1.4106 C.ar    
  12 C12            0.2600    -2.9829    -1.9521 C.ar    
  13 C13            0.3651    -3.4280    -3.2554 C.ar    
  14 C14           -0.7791    -3.6038    -4.0219 C.ar    
  15 C15           -2.0260    -3.3315    -3.4753 C.ar    
  16 C16           -2.1251    -2.8917    -2.1698 C.ar    
  17 N17           -0.6756    -4.0550    -5.3450 N.pl3   
  18 N18            0.5122    -4.3661    -6.0195 N.2     
  19 C19            0.2053    -4.7517    -7.2320 C.2     
  20 C20           -1.1862    -4.6989    -7.3694 C.2     
  21 C21           -1.7050    -4.2726    -6.1945 C.2     
  22 C22           -3.6068     2.2326     0.0780 C.2     
  23 N23           -3.1693     3.5035     0.0835 N.am    
  24 C24           -1.7020     3.4978     0.0695 C.3     
  25 O25           -4.7765     1.9009     0.0891 O.2     
  26 C26           -4.0177     4.6977     0.1036 C.3     
  27 C27           -4.2953     5.1016     1.5530 C.3     
  28 O28           -3.0805     5.5302     2.1792 O.3     
  29 C29           -3.1917     6.9064     2.5754 C.3     
  30 C30           -4.7116     7.1585     2.7400 C.3     
  31 C31           -5.2813     6.2891     1.5860 C.3     
  32 H32           -3.3026    -0.6850     0.0498 H       
  33 H33            2.0996     0.1535     1.7035 H       
  34 H34            1.1711    -1.3496     1.9200 H       
  35 H35            2.7546    -1.3908     1.1082 H       
  36 H36           -0.2204    -2.5526     0.5760 H       
  37 H37           -1.9949    -2.6401     0.4671 H       
  38 H38            1.1497    -2.8456    -1.3555 H       
  39 H39            1.3364    -3.6387    -3.6779 H       
  40 H40           -2.9178    -3.4670    -4.0692 H       
  41 H41           -3.0947    -2.6797    -1.7441 H       
  42 H42            0.9055    -5.0575    -7.9952 H       
  43 H43           -1.7473    -4.9567    -8.2554 H       
  44 H44           -2.7526    -4.1268    -5.9764 H       
  45 H45           -1.3169     3.9887     0.9632 H       
  46 H46           -1.3339     4.0023    -0.8239 H       
  47 H47           -3.5089     5.5135    -0.4098 H       
  48 H48           -4.9599     4.4826    -0.4005 H       
  49 H49           -4.7143     4.2561     2.0986 H       
  50 H50           -2.6763     7.0706     3.5217 H       
  51 H51           -2.7818     7.5568     1.8027 H       
  52 H52           -5.0656     6.8062     3.7088 H       
  53 H53           -4.9532     8.2114     2.5947 H       
  54 H54           -5.2623     6.8354     0.6430 H       
  55 H55           -6.2905     5.9490     1.8184 H       
@<TRIPOS>BOND
   1    1    2 ar
   2    1    7 1
   3    1    6 ar
   4    2    3 ar
   5    2    8 1
   6    3    4 ar
   7    3   10 1
   8    4    5 ar
   9    4   32 1
  10    5    6 ar
  11    5   22 1
  12    6   24 1
  13    8    9 1
  14    9   33 1
  15    9   34 1
  16    9   35 1
  17   10   11 1
  18   10   36 1
  19   10   37 1
  20   11   12 ar
  21   11   16 ar
  22   12   13 ar
  23   12   38 1
  24   13   14 ar
  25   13   39 1
  26   14   15 ar
  27   14   17 1
  28   15   16 ar
  29   15   40 1
  30   16   41 1
  31   17   18 1
  32   17   21 1
  33   18   19 2
  34   19   20 1
  35   19   42 1
  36   20   21 2
  37   20   43 1
  38   21   44 1
  39   22   23 am
  40   22   25 2
  41   23   24 1
  42   23   26 1
  43   24   45 1
  44   24   46 1
  45   26   27 1
  46   26   47 1
  47   26   48 1
  48   27   28 1
  49   27   31 1
  50   27   49 1
  51   28   29 1
  52   29   30 1
  53   29   50 1
  54   29   51 1
  55   30   31 1
  56   30   52 1
  57   30   53 1
  58   31   54 1
  59   31   55 1

#	End of record

