#	Name: ASD02039230
#	Creating user name:	WinNT
#	Creation time:	15. 06. 2019 20:17

#	Modifying user name:	WinNT
#	Modification time:	15. 06. 2019 20:17

#	Program:	/corina/corina34_cracker 3.40 0067  02.08.2006

@<TRIPOS>MOLECULE
ASD02039230
  39   42    0    0    0
SMALL
NO_CHARGES


@<TRIPOS>ATOM
   1 N1             0.0027     1.2565     0.3783 N.2     
   2 C2             0.0063    -0.0137     0.0899 C.2     
   3 S3             1.6824    -0.4973    -0.1781 S.3     
   4 C4             2.1782     1.1640     0.1518 C.2     
   5 N5             1.1137     1.8523     0.4084 N.2     
   6 N6            -1.1069    -0.8381     0.0088 N.pl3   
   7 C7            -2.3894    -0.2949     0.1298 C.ar    
   8 C8            -2.6308     1.0143    -0.2675 C.ar    
   9 C9            -3.8984     1.5489    -0.1472 C.ar    
  10 C10           -4.9283     0.7821     0.3688 C.ar    
  11 C11           -4.6910    -0.5231     0.7662 C.ar    
  12 C12           -3.4254    -1.0649     0.6420 C.ar    
  13 Cl13          -6.5204     1.4577     0.5186 Cl      
  14 C14            3.5913     1.6876     0.1378 C.3     
  15 O15            4.1607     1.5566     1.4418 O.3     
  16 C16            5.4408     1.9856     1.6023 C.ar    
  17 C17            6.1325     2.5228     0.5195 C.ar    
  18 C18            7.4298     2.9630     0.6637 C.ar    
  19 C19            8.0607     2.8729     1.8997 C.ar    
  20 C20            7.3653     2.3305     2.9970 C.ar    
  21 C21            6.0467     1.8919     2.8394 C.ar    
  22 N22            9.3604     3.3074     2.0643 N.am    
  23 C23            9.9728     3.2205     3.2579 C.2     
  24 C24            9.3196     2.6846     4.3883 C.2     
  25 C25            8.0420     2.2407     4.2923 C.2     
  26 O26           11.1213     3.6142     3.3665 O.2     
  27 Cl27          -5.9854    -1.4818     1.4135 Cl      
  28 H28           -0.9952    -1.7914    -0.1318 H       
  29 H29           -1.8276     1.6137    -0.6700 H       
  30 H30           -4.0860     2.5668    -0.4557 H       
  31 H31           -3.2403    -2.0828     0.9519 H       
  32 H32            4.1836     1.1156    -0.5765 H       
  33 H33            3.5867     2.7381    -0.1528 H       
  34 H34            5.6471     2.5947    -0.4426 H       
  35 H35            7.9569     3.3776    -0.1829 H       
  36 H36            5.5086     1.4753     3.6780 H       
  37 H37            9.8390     3.6807     1.3076 H       
  38 H38            9.8391     2.6281     5.3335 H       
  39 H39            7.5345     1.8298     5.1525 H       
@<TRIPOS>BOND
   1    1    2 2
   2    1    5 1
   3    2    3 1
   4    2    6 1
   5    3    4 1
   6    4    5 2
   7    4   14 1
   8    6    7 1
   9    6   28 1
  10    7    8 ar
  11    7   12 ar
  12    8    9 ar
  13    8   29 1
  14    9   10 ar
  15    9   30 1
  16   10   11 ar
  17   10   13 1
  18   11   12 ar
  19   11   27 1
  20   12   31 1
  21   14   15 1
  22   14   32 1
  23   14   33 1
  24   15   16 1
  25   16   17 ar
  26   16   21 ar
  27   17   18 ar
  28   17   34 1
  29   18   19 ar
  30   18   35 1
  31   19   20 ar
  32   19   22 1
  33   20   21 ar
  34   20   25 1
  35   21   36 1
  36   22   23 am
  37   22   37 1
  38   23   24 1
  39   23   26 2
  40   24   25 2
  41   24   38 1
  42   25   39 1

#	End of record

