#	Name: ASD00310187
#	Creating user name:	WinNT
#	Creation time:	15. 06. 2019 18:33

#	Modifying user name:	WinNT
#	Modification time:	15. 06. 2019 18:33

#	Program:	/corina/corina34_cracker 3.40 0067  02.08.2006

@<TRIPOS>MOLECULE
ASD00310187
  37   38    0    0    0
SMALL
NO_CHARGES


@<TRIPOS>ATOM
   1 C1            -0.0187     1.5258     0.0104 C.3     
   2 C2             0.0021    -0.0041     0.0020 C.3     
   3 O3             0.5895    -0.4792     1.2150 O.3     
   4 C4             0.6844    -1.8240     1.3680 C.ar    
   5 C5             1.2458    -2.3527     2.5248 C.ar    
   6 C6             1.3439    -3.7171     2.6826 C.ar    
   7 C7             0.8785    -4.5694     1.6801 C.ar    
   8 C8             0.3150    -4.0357     0.5202 C.ar    
   9 C9             0.2148    -2.6706     0.3701 C.ar    
  10 O10            0.5200    -7.0150     0.8447 O.3     
  11 B11            0.9893    -6.1255     1.8567 Du      
  12 O12            1.5626    -6.6924     3.0338 O.3     
  13 C13            2.5477    -7.6912     2.7416 C.3     
  14 C14            1.9433    -8.7235     1.7853 C.3     
  15 C15            1.4824    -8.0208     0.5048 C.3     
  16 C16            2.9974    -9.7767     1.4384 C.3     
  17 C17            0.7459    -9.4004     2.4553 C.3     
  18 O18            1.3220     2.0204     0.0003 O.3     
  19 H19           -0.5459     1.8868    -0.8726 H       
  20 H20           -0.5289     1.8773     0.9072 H       
  21 H21           -1.0175    -0.3808    -0.0798 H       
  22 H22            0.5883    -0.3548    -0.8473 H       
  23 H23            1.6058    -1.6927     3.3002 H       
  24 H24            1.7808    -4.1273     3.5811 H       
  25 H25           -0.0459    -4.6929    -0.2572 H       
  26 H26           -0.2252    -2.2571    -0.5253 H       
  27 H27            3.4137    -7.2233     2.2733 H       
  28 H28            2.8525    -8.1839     3.6649 H       
  29 H29            1.0274    -8.7486    -0.1670 H       
  30 H30            2.3384    -7.5561     0.0156 H       
  31 H31            3.3267   -10.2753     2.3501 H       
  32 H32            2.5669   -10.5113     0.7578 H       
  33 H33            3.8497    -9.2940     0.9602 H       
  34 H34           -0.0052    -8.6497     2.7013 H       
  35 H35            0.3159   -10.1351     1.7745 H       
  36 H36            1.0738    -9.8988     3.3676 H       
  37 H37            1.3852     2.9853     0.0049 H       
@<TRIPOS>BOND
   1    1    2 1
   2    1   18 1
   3    1   19 1
   4    1   20 1
   5    2    3 1
   6    2   21 1
   7    2   22 1
   8    3    4 1
   9    4    5 ar
  10    4    9 ar
  11    5    6 ar
  12    5   23 1
  13    6    7 ar
  14    6   24 1
  15    7    8 ar
  16    7   11 1
  17    8    9 ar
  18    8   25 1
  19    9   26 1
  20   10   11 1
  21   10   15 1
  22   11   12 1
  23   12   13 1
  24   13   14 1
  25   13   27 1
  26   13   28 1
  27   14   15 1
  28   14   16 1
  29   14   17 1
  30   15   29 1
  31   15   30 1
  32   16   31 1
  33   16   32 1
  34   16   33 1
  35   17   34 1
  36   17   35 1
  37   17   36 1
  38   18   37 1

#	End of record

