#	Name: ASD02401020
#	Creating user name:	WinNT
#	Creation time:	15. 06. 2019 20:20

#	Modifying user name:	WinNT
#	Modification time:	15. 06. 2019 20:20

#	Program:	/corina/corina34_cracker 3.40 0067  02.08.2006

@<TRIPOS>MOLECULE
ASD02401020
  28   29    0    0    0
SMALL
NO_CHARGES


@<TRIPOS>ATOM
   1 C1            -1.1193    -0.6173    -0.4100 C.ar    
   2 C2             0.0014    -0.0034     0.1489 C.ar    
   3 C3            -0.0940     1.2794     0.6718 C.ar    
   4 C4            -1.2962     1.9517     0.6410 C.ar    
   5 C5            -2.4235     1.3425     0.0824 C.ar    
   6 C6            -2.3259     0.0528    -0.4494 C.ar    
   7 C7            -3.7116     2.0607     0.0485 C.2     
   8 C8            -4.9748     1.3055    -0.0549 C.ar    
   9 C9            -5.0260    -0.0323     0.3471 C.ar    
  10 C10           -6.2065    -0.7360     0.2497 C.ar    
  11 C11           -7.3470    -0.1196    -0.2475 C.ar    
  12 C12           -7.3030     1.2148    -0.6508 C.ar    
  13 C13           -6.1250     1.9281    -0.5499 C.ar    
  14 O14           -8.4217     1.8151    -1.1383 O.3     
  15 O15           -8.5078    -0.8177    -0.3418 O.3     
  16 O16           -1.0222    -1.8737    -0.9213 O.3     
  17 O17            1.1885    -0.6618     0.1821 O.3     
  18 O18           -3.7323     3.2754     0.1058 O.2     
  19 H19            0.7761     1.7511     1.1041 H       
  20 H20           -1.3677     2.9492     1.0488 H       
  21 H21           -3.1944    -0.4213    -0.8823 H       
  22 H22           -4.1402    -0.5144     0.7336 H       
  23 H23           -6.2447    -1.7696     0.5606 H       
  24 H24           -6.0895     2.9614    -0.8618 H       
  25 H25           -8.9648     2.2429    -0.4622 H       
  26 H26           -9.0631    -0.7660     0.4481 H       
  27 H27           -1.2030    -2.5744    -0.2799 H       
  28 H28            1.7413    -0.5155    -0.5976 H       
@<TRIPOS>BOND
   1    1    2 ar
   2    1   16 1
   3    1    6 ar
   4    2    3 ar
   5    2   17 1
   6    3    4 ar
   7    3   19 1
   8    4    5 ar
   9    4   20 1
  10    5    6 ar
  11    5    7 1
  12    6   21 1
  13    7    8 1
  14    7   18 2
  15    8    9 ar
  16    8   13 ar
  17    9   10 ar
  18    9   22 1
  19   10   11 ar
  20   10   23 1
  21   11   12 ar
  22   11   15 1
  23   12   13 ar
  24   12   14 1
  25   13   24 1
  26   14   25 1
  27   15   26 1
  28   16   27 1
  29   17   28 1

#	End of record

