#	Name: ASD01230686
#	Creating user name:	WinNT
#	Creation time:	15. 06. 2019 19:14

#	Modifying user name:	WinNT
#	Modification time:	15. 06. 2019 19:14

#	Program:	/corina/corina34_cracker 3.40 0067  02.08.2006

@<TRIPOS>MOLECULE
ASD01230686
  52   55    0    0    0
SMALL
NO_CHARGES


@<TRIPOS>ATOM
   1 O1             0.0782     1.3255    -0.0535 O.3     
   2 B2             0.0858    -0.1089    -0.0245 Du      
   3 O3             1.1639    -0.4895    -0.8912 O.3     
   4 C4             2.2085     0.4678    -0.6168 C.3     
   5 C5             1.4723     1.6983    -0.0488 C.3     
   6 C6            -0.8749    -1.0549     0.7799 C.ar    
   7 C7            -0.7276    -2.4384     0.6941 C.ar    
   8 C8            -1.5744    -3.2650     1.4036 C.ar    
   9 C9            -2.5686    -2.7231     2.1988 C.ar    
  10 C10           -2.7194    -1.3505     2.2877 C.ar    
  11 C11           -1.8745    -0.5144     1.5870 C.ar    
  12 C12           -3.4911    -3.6312     2.9705 C.3     
  13 C13           -2.7542    -4.6374     3.8702 C.3     
  14 C14           -3.8426    -4.3727     4.9238 C.3     
  15 C15           -4.0400    -2.9994     4.2607 C.3     
  16 C16           -4.5525    -4.2598     2.1049 C.ar    
  17 C17           -5.5302    -3.4711     1.5278 C.ar    
  18 C18           -6.5039    -4.0478     0.7338 C.ar    
  19 C19           -6.4996    -5.4129     0.5167 C.ar    
  20 C20           -5.5214    -6.2014     1.0931 C.ar    
  21 C21           -4.5452    -5.6243     1.8835 C.ar    
  22 C22            1.7012     2.9171    -0.9450 C.3     
  23 C23            1.9417     1.9887     1.3781 C.3     
  24 C24            3.1868    -0.0925     0.4175 C.3     
  25 C25            2.9462     0.8359    -1.9056 C.3     
  26 H26            0.0476    -2.8624     0.0732 H       
  27 H27           -1.4612    -4.3371     1.3378 H       
  28 H28           -3.4971    -0.9329     2.9098 H       
  29 H29           -1.9904     0.5569     1.6604 H       
  30 H30           -2.7605    -5.6561     3.4823 H       
  31 H31           -1.7617    -4.3055     4.1748 H       
  32 H32           -4.7074    -5.0299     4.8328 H       
  33 H33           -3.4592    -4.3146     5.9425 H       
  34 H34           -3.3990    -2.2197     4.6720 H       
  35 H35           -5.0843    -2.6957     4.1880 H       
  36 H36           -5.5335    -2.4046     1.6975 H       
  37 H37           -7.2681    -3.4317     0.2835 H       
  38 H38           -7.2607    -5.8635    -0.1031 H       
  39 H39           -5.5182    -7.2681     0.9237 H       
  40 H40           -3.7787    -6.2398     2.3308 H       
  41 H41            1.1285     3.7620    -0.5626 H       
  42 H42            2.7615     3.1697    -0.9509 H       
  43 H43            1.3766     2.6878    -1.9600 H       
  44 H44            1.7865     1.1059     1.9984 H       
  45 H45            3.0015     2.2433     1.3673 H       
  46 H46            1.3716     2.8237     1.7853 H       
  47 H47            3.6556    -0.9941     0.0232 H       
  48 H48            3.9538     0.6515     0.6325 H       
  49 H49            2.6480    -0.3341     1.3337 H       
  50 H50            2.2381     1.2478    -2.6247 H       
  51 H51            3.7138     1.5779    -1.6857 H       
  52 H52            3.4125    -0.0558    -2.3247 H       
@<TRIPOS>BOND
   1    1    2 1
   2    1    5 1
   3    2    3 1
   4    2    6 1
   5    3    4 1
   6    4    5 1
   7    4   24 1
   8    4   25 1
   9    5   22 1
  10    5   23 1
  11    6    7 ar
  12    6   11 ar
  13    7    8 ar
  14    7   26 1
  15    8    9 ar
  16    8   27 1
  17    9   10 ar
  18    9   12 1
  19   10   11 ar
  20   10   28 1
  21   11   29 1
  22   12   13 1
  23   12   15 1
  24   12   16 1
  25   13   14 1
  26   13   30 1
  27   13   31 1
  28   14   15 1
  29   14   32 1
  30   14   33 1
  31   15   34 1
  32   15   35 1
  33   16   17 ar
  34   16   21 ar
  35   17   18 ar
  36   17   36 1
  37   18   19 ar
  38   18   37 1
  39   19   20 ar
  40   19   38 1
  41   20   21 ar
  42   20   39 1
  43   21   40 1
  44   22   41 1
  45   22   42 1
  46   22   43 1
  47   23   44 1
  48   23   45 1
  49   23   46 1
  50   24   47 1
  51   24   48 1
  52   24   49 1
  53   25   50 1
  54   25   51 1
  55   25   52 1

#	End of record

