#	Name: ASD01881213
#	Creating user name:	WinNT
#	Creation time:	15. 06. 2019 19:42

#	Modifying user name:	WinNT
#	Modification time:	15. 06. 2019 19:42

#	Program:	/corina/corina34_cracker 3.40 0067  02.08.2006

@<TRIPOS>MOLECULE
ASD01881213
  56   59    0    0    0
SMALL
NO_CHARGES


@<TRIPOS>ATOM
   1 N1             0.0003     1.3173    -0.2015 N.ar    
   2 C2             0.0238    -0.0049    -0.2232 C.ar    
   3 N3             1.1433    -0.6835    -0.0306 N.ar    
   4 C4             2.2898    -0.0577     0.1923 C.ar    
   5 C5             2.3106     1.3230     0.2229 C.ar    
   6 C6             1.1133     2.0111     0.0166 C.ar    
   7 C7             3.5955     2.0693     0.4740 C.3     
   8 O8             4.6354     1.1381     0.7797 O.3     
   9 C9             5.8661     1.6504     1.0338 C.ar    
  10 C10            6.9241     0.7988     1.3385 C.ar    
  11 C11            8.1688     1.3170     1.5950 C.ar    
  12 C12            8.3829     2.6990     1.5524 C.ar    
  13 C13            7.3166     3.5510     1.2458 C.ar    
  14 C14            6.0697     3.0235     0.9839 C.ar    
  15 C15            9.4956     0.6915     1.9469 C.3     
  16 N16           10.4448     1.8008     2.0943 N.am    
  17 C17            9.7983     2.9567     1.8658 C.2     
  18 O18           10.3098     4.0589     1.9111 O.2     
  19 Cl19           7.5639     5.2683     1.1890 Cl      
  20 N20            1.0857     3.3960     0.0379 N.3     
  21 C21           -0.1593     3.8886     0.6435 C.3     
  22 C22           -0.1162     5.4166     0.7206 C.3     
  23 N23            0.0633     5.9678    -0.6298 N.3     
  24 C24            1.3083     5.4751    -1.2354 C.3     
  25 C25            1.2652     3.9472    -1.3125 C.3     
  26 C26            0.0340     7.4363    -0.6072 C.3     
  27 C27           12.6849     1.5305     1.1507 C.3     
  28 C28           11.8638     1.6697     2.4342 C.3     
  29 O29           -1.1278    -0.6817    -0.4480 O.3     
  30 C30           -1.0497    -2.1085    -0.4618 C.3     
  31 H31            3.1979    -0.6210     0.3486 H       
  32 H32            3.8661     2.6367    -0.4165 H       
  33 H33            3.4610     2.7521     1.3129 H       
  34 H34            6.7656    -0.2690     1.3734 H       
  35 H35            5.2464     3.6811     0.7468 H       
  36 H36            9.4136     0.1413     2.8842 H       
  37 H37            9.8194     0.0250     1.1475 H       
  38 H38           -1.0078     3.5791     0.0333 H       
  39 H39           -0.2633     3.4767     1.6473 H       
  40 H40           -1.0507     5.7859     1.1429 H       
  41 H41            0.7161     5.7254     1.3530 H       
  42 H42            1.4123     5.8871    -2.2392 H       
  43 H43            2.1568     5.7846    -0.6252 H       
  44 H44            2.1997     3.5778    -1.7348 H       
  45 H45            0.4329     3.6383    -1.9449 H       
  46 H46            0.8369     7.8059     0.0307 H       
  47 H47            0.1691     7.8180    -1.6192 H       
  48 H48           -0.9256     7.7746    -0.2163 H       
  49 H49           12.3587     0.6452     0.6049 H       
  50 H50           12.5402     2.4142     0.5292 H       
  51 H51           13.7407     1.4330     1.4036 H       
  52 H52           12.1900     2.5551     2.9800 H       
  53 H53           12.0084     0.7860     3.0557 H       
  54 H54           -0.3645    -2.4273    -1.2473 H       
  55 H55           -0.6859    -2.4618     0.5031 H       
  56 H56           -2.0390    -2.5248    -0.6517 H       
@<TRIPOS>BOND
   1    1    2 ar
   2    1    6 ar
   3    2    3 ar
   4    2   29 1
   5    3    4 ar
   6    4    5 ar
   7    4   31 1
   8    5    6 ar
   9    5    7 1
  10    6   20 1
  11    7    8 1
  12    7   32 1
  13    7   33 1
  14    8    9 1
  15    9   10 ar
  16    9   14 ar
  17   10   11 ar
  18   10   34 1
  19   11   12 ar
  20   11   15 1
  21   12   13 ar
  22   12   17 1
  23   13   14 ar
  24   13   19 1
  25   14   35 1
  26   15   16 1
  27   15   36 1
  28   15   37 1
  29   16   17 am
  30   16   28 1
  31   17   18 2
  32   20   21 1
  33   20   25 1
  34   21   22 1
  35   21   38 1
  36   21   39 1
  37   22   23 1
  38   22   40 1
  39   22   41 1
  40   23   24 1
  41   23   26 1
  42   24   25 1
  43   24   42 1
  44   24   43 1
  45   25   44 1
  46   25   45 1
  47   26   46 1
  48   26   47 1
  49   26   48 1
  50   27   28 1
  51   27   49 1
  52   27   50 1
  53   27   51 1
  54   28   52 1
  55   28   53 1
  56   29   30 1
  57   30   54 1
  58   30   55 1
  59   30   56 1

#	End of record

