#	Name: ASD01913326
#	Creating user name:	WinNT
#	Creation time:	15. 06. 2019 20:01

#	Modifying user name:	WinNT
#	Modification time:	15. 06. 2019 20:01

#	Program:	/corina/corina34_cracker 3.40 0067  02.08.2006

@<TRIPOS>MOLECULE
ASD01913326
  34   36    0    0    0
SMALL
NO_CHARGES


@<TRIPOS>ATOM
   1 C1            -0.0169     1.3968     0.0097 C.ar    
   2 C2             0.0021    -0.0041     0.0020 C.ar    
   3 C3             1.2469    -0.6468    -0.0133 C.ar    
   4 N4             2.3450     0.0882    -0.0199 N.ar    
   5 C5             2.2805     1.4052    -0.0122 C.ar    
   6 N6             1.1310     2.0511     0.0023 N.ar    
   7 C7             3.5621     2.1979    -0.0201 C.3     
   8 C8            -1.2158    -0.7573     0.0101 C.1     
   9 C9            -2.2142    -1.3749     0.0167 C.1     
  10 C10           -3.4321    -2.1281     0.0247 C.ar    
  11 C11           -3.3937    -3.5249     0.0168 C.ar    
  12 C12           -4.5707    -4.2438     0.0251 C.ar    
  13 C13           -5.7876    -3.5851     0.0412 C.ar    
  14 C14           -5.8334    -2.2020     0.0491 C.ar    
  15 C15           -4.6645    -1.4700     0.0463 C.ar    
  16 N16            3.9642     2.4622    -1.4039 N.am    
  17 C17            3.5697     3.6341    -2.2003 C.3     
  18 C18            4.2636     3.4063    -3.5571 C.3     
  19 O19            4.9690     2.1431    -3.3847 O.3     
  20 C20            4.7562     1.6785    -2.1485 C.2     
  21 O21            5.2309     0.6370    -1.7407 O.2     
  22 H22           -0.9544     1.9331     0.0171 H       
  23 H23            1.3080    -1.7250    -0.0193 H       
  24 H24            3.4079     3.1431     0.5003 H       
  25 H25            4.3441     1.6293     0.4832 H       
  26 H26           -2.4447    -4.0404     0.0039 H       
  27 H27           -4.5426    -5.3234     0.0187 H       
  28 H28           -6.7061    -4.1532     0.0473 H       
  29 H29           -6.7867    -1.6947     0.0617 H       
  30 H30           -4.7018    -0.3906     0.0524 H       
  31 H31            2.4872     3.6659    -2.3245 H       
  32 H32            3.9298     4.5519    -1.7354 H       
  33 H33            3.5255     3.3259    -4.3551 H       
  34 H34            4.9677     4.2117    -3.7662 H       
@<TRIPOS>BOND
   1    1    2 ar
   2    1    6 ar
   3    1   22 1
   4    2    3 ar
   5    2    8 1
   6    3    4 ar
   7    3   23 1
   8    4    5 ar
   9    5    6 ar
  10    5    7 1
  11    7   16 1
  12    7   24 1
  13    7   25 1
  14    8    9 3
  15    9   10 1
  16   10   11 ar
  17   10   15 ar
  18   11   12 ar
  19   11   26 1
  20   12   13 ar
  21   12   27 1
  22   13   14 ar
  23   13   28 1
  24   14   15 ar
  25   14   29 1
  26   15   30 1
  27   16   17 1
  28   16   20 am
  29   17   18 1
  30   17   31 1
  31   17   32 1
  32   18   19 1
  33   18   33 1
  34   18   34 1
  35   19   20 1
  36   20   21 2

#	End of record

