#	Name: ASD01022001
#	Creating user name:	WinNT
#	Creation time:	15. 06. 2019 18:56

#	Modifying user name:	WinNT
#	Modification time:	15. 06. 2019 18:56

#	Program:	/corina/corina34_cracker 3.40 0067  02.08.2006

@<TRIPOS>MOLECULE
ASD01022001
  67   70    0    0    0
SMALL
NO_CHARGES


@<TRIPOS>ATOM
   1 C1            -0.0167     1.3831     0.0096 C.ar    
   2 C2             0.0021    -0.0041     0.0020 C.ar    
   3 C3             1.2141    -0.6789    -0.0132 C.ar    
   4 C4             2.3989     0.0314    -0.0207 C.ar    
   5 C5             2.3774     1.4139    -0.0126 C.ar    
   6 C6             1.1708     2.0889     0.0021 C.ar    
   7 O7            -1.1648    -0.7006     0.0099 O.3     
   8 C8             3.6714     2.1863    -0.0198 C.3     
   9 C9             4.0963     2.4560    -1.4647 C.3     
  10 O10            5.3233     3.1884    -1.4715 O.3     
  11 C11            5.8425     3.5118    -2.6860 C.ar    
  12 C12            5.1787     3.1284    -3.8482 C.ar    
  13 C13            5.6905     3.4476    -5.0863 C.ar    
  14 C14            6.8809     4.1598    -5.1838 C.ar    
  15 C15            7.5538     4.5490    -4.0116 C.ar    
  16 C16            7.0231     4.2240    -2.7616 C.ar    
  17 N17            7.6265     4.6163    -6.2504 N.pl3   
  18 C18            8.7360     5.2738    -5.7940 C.2     
  19 C19            8.7515     5.2687    -4.4517 C.2     
  20 C20            7.2819     4.4256    -7.6614 C.3     
  21 C21            6.3216     5.5306    -8.1057 C.3     
  22 C22            5.9617     5.3315    -9.5794 C.3     
  23 C23            5.0013     6.4366   -10.0237 C.3     
  24 C24            4.6414     6.2374   -11.4974 C.3     
  25 C25            3.6955     7.3259   -11.9350 C.ar    
  26 C26            4.1930     8.5060   -12.4552 C.ar    
  27 C27            3.3253     9.5045   -12.8566 C.ar    
  28 C28            1.9601     9.3226   -12.7382 C.ar    
  29 C29            1.4626     8.1421   -12.2188 C.ar    
  30 C30            2.3301     7.1419   -11.8215 C.ar    
  31 C31            9.8021     5.8864    -3.5652 C.3     
  32 C32           10.8308     4.8228    -3.1762 C.3     
  33 N33           11.8549     5.4250    -2.3122 N.3     
  34 Cl34          13.0272     4.2677    -1.8532 Cl      
  35 H35           -0.9590     1.9108     0.0170 H       
  36 H36            1.2314    -1.7588    -0.0188 H       
  37 H37            3.3426    -0.4935    -0.0325 H       
  38 H38            1.1567     3.1688     0.0084 H       
  39 H39           -1.5113    -0.8975    -0.8712 H       
  40 H40            3.5318     3.1338     0.5007 H       
  41 H41            4.4441     1.6055     0.4838 H       
  42 H42            4.2359     1.5085    -1.9852 H       
  43 H43            3.3236     3.0369    -1.9683 H       
  44 H44            4.2538     2.5752    -3.7781 H       
  45 H45            5.1676     3.1446    -5.9813 H       
  46 H46            7.5370     4.5212    -1.8594 H       
  47 H47            9.4882     5.7295    -6.4209 H       
  48 H48            8.1882     4.4672    -8.2656 H       
  49 H49            6.8034     3.4548    -7.7906 H       
  50 H50            5.4153     5.4890    -7.5015 H       
  51 H51            6.8001     6.5014    -7.9766 H       
  52 H52            6.8679     5.3731   -10.1836 H       
  53 H53            5.4832     4.3607    -9.7086 H       
  54 H54            4.0950     6.3949    -9.4195 H       
  55 H55            5.4798     7.4074    -9.8945 H       
  56 H56            5.5477     6.2790   -12.1015 H       
  57 H57            4.1629     5.2666   -11.6265 H       
  58 H58            5.2596     8.6481   -12.5477 H       
  59 H59            3.7140    10.4268   -13.2623 H       
  60 H60            1.2822    10.1029   -13.0511 H       
  61 H61            0.3960     8.0001   -12.1260 H       
  62 H62            1.9414     6.2196   -11.4157 H       
  63 H63           10.2999     6.6947    -4.1009 H       
  64 H64            9.3312     6.2827    -2.6656 H       
  65 H65           10.3330     4.0145    -2.6406 H       
  66 H66           11.3017     4.4266    -4.0759 H       
  67 H67           12.2867     6.2183    -2.7620 H       
@<TRIPOS>BOND
   1    1    2 ar
   2    1    6 ar
   3    1   35 1
   4    2    3 ar
   5    2    7 1
   6    3    4 ar
   7    3   36 1
   8    4    5 ar
   9    4   37 1
  10    5    6 ar
  11    5    8 1
  12    6   38 1
  13    7   39 1
  14    8    9 1
  15    8   40 1
  16    8   41 1
  17    9   10 1
  18    9   42 1
  19    9   43 1
  20   10   11 1
  21   11   12 ar
  22   11   16 ar
  23   12   13 ar
  24   12   44 1
  25   13   14 ar
  26   13   45 1
  27   14   15 ar
  28   14   17 1
  29   15   16 ar
  30   15   19 1
  31   16   46 1
  32   17   18 1
  33   17   20 1
  34   18   19 2
  35   18   47 1
  36   19   31 1
  37   20   21 1
  38   20   48 1
  39   20   49 1
  40   21   22 1
  41   21   50 1
  42   21   51 1
  43   22   23 1
  44   22   52 1
  45   22   53 1
  46   23   24 1
  47   23   54 1
  48   23   55 1
  49   24   25 1
  50   24   56 1
  51   24   57 1
  52   25   26 ar
  53   25   30 ar
  54   26   27 ar
  55   26   58 1
  56   27   28 ar
  57   27   59 1
  58   28   29 ar
  59   28   60 1
  60   29   30 ar
  61   29   61 1
  62   30   62 1
  63   31   32 1
  64   31   63 1
  65   31   64 1
  66   32   33 1
  67   32   65 1
  68   32   66 1
  69   33   34 1
  70   33   67 1

#	End of record

