#	Name: ASD01812733
#	Creating user name:	WinNT
#	Creation time:	15. 06. 2019 19:29

#	Modifying user name:	WinNT
#	Modification time:	15. 06. 2019 19:29

#	Program:	/corina/corina34_cracker 3.40 0067  02.08.2006

@<TRIPOS>MOLECULE
ASD01812733
  51   55    0    0    0
SMALL
NO_CHARGES


@<TRIPOS>ATOM
   1 N1            -0.0158     1.3147     0.0093 N.ar    
   2 C2             0.0021    -0.0041     0.0020 C.ar    
   3 C3             1.1989    -0.7033    -0.0127 C.ar    
   4 C4             2.3829    -0.0013    -0.0202 C.ar    
   5 C5             2.3448     1.3978    -0.0128 C.ar    
   6 C6             1.0955     2.0332     0.0025 C.ar    
   7 C7             3.8373    -0.3889    -0.0363 C.3     
   8 N8             4.5955     0.8684    -0.0373 N.am    
   9 C9             3.7280     1.8961    -0.0237 C.2     
  10 C10            6.0558     0.9844    -0.0504 C.3     
  11 C11            6.5432     1.0311    -1.4757 C.ar    
  12 C12            6.6716     2.2470    -2.1215 C.ar    
  13 C13            7.1176     2.2930    -3.4279 C.ar    
  14 C14            7.4377     1.1167    -4.0924 C.ar    
  15 C15            7.3082    -0.1026    -3.4412 C.ar    
  16 C16            6.8666    -0.1417    -2.1330 C.ar    
  17 O17            1.0255     3.3856     0.0100 O.3     
  18 O18            4.0429     3.0706    -0.0212 O.2     
  19 C19           -0.2795     3.9677     0.0251 C.3     
  20 N20            7.4709     2.0625    -6.4046 N.2     
  21 N21            7.8902     1.1601    -5.4186 N.pl3   
  22 C22            8.8137     0.3348    -5.9763 C.2     
  23 C23            8.9679     0.7086    -7.2707 C.2     
  24 C24            8.1156     1.7916    -7.5106 C.2     
  25 F25            9.4610    -0.6749    -5.3545 F       
  26 C26           -0.1576     5.4928     0.0317 C.3     
  27 O27            0.4061     5.9406    -1.2066 O.3     
  28 C28           -0.5326     6.7798    -1.8980 C.3     
  29 C29           -1.4572     7.3488    -0.7925 C.3     
  30 C30           -1.5578     6.1295     0.1641 C.3     
  31 H31           -0.9309    -0.5480     0.0080 H       
  32 H32            1.2023    -1.7833    -0.0178 H       
  33 H33            4.0797    -0.9721     0.8522 H       
  34 H34            4.0624    -0.9631    -0.9351 H       
  35 H35            6.3524     1.8979     0.4651 H       
  36 H36            6.4932     0.1235     0.4552 H       
  37 H37            6.4224     3.1617    -1.6041 H       
  38 H38            7.2170     3.2429    -3.9321 H       
  39 H39            7.5561    -1.0192    -3.9557 H       
  40 H40            6.7695    -1.0895    -1.6245 H       
  41 H41           -0.8289     3.6509    -0.8614 H       
  42 H42           -0.8123     3.6419     0.9185 H       
  43 H43            9.6313     0.2508    -7.9895 H       
  44 H44            8.0079     2.3152    -8.4491 H       
  45 H45            0.4741     5.8096     0.8615 H       
  46 H46           -0.0114     7.5893    -2.4091 H       
  47 H47           -1.1118     6.1925    -2.6105 H       
  48 H48           -0.9957     8.2016    -0.2948 H       
  49 H49           -2.4347     7.6134    -1.1957 H       
  50 H50           -2.3315     5.4378    -0.1690 H       
  51 H51           -1.7409     6.4542     1.1884 H       
@<TRIPOS>BOND
   1    1    2 ar
   2    1    6 ar
   3    2    3 ar
   4    2   31 1
   5    3    4 ar
   6    3   32 1
   7    4    7 1
   8    4    5 ar
   9    5    6 ar
  10    5    9 1
  11    6   17 1
  12    7    8 1
  13    7   33 1
  14    7   34 1
  15    8    9 am
  16    8   10 1
  17    9   18 2
  18   10   11 1
  19   10   35 1
  20   10   36 1
  21   11   12 ar
  22   11   16 ar
  23   12   13 ar
  24   12   37 1
  25   13   14 ar
  26   13   38 1
  27   14   15 ar
  28   14   21 1
  29   15   16 ar
  30   15   39 1
  31   16   40 1
  32   17   19 1
  33   19   26 1
  34   19   41 1
  35   19   42 1
  36   20   21 1
  37   20   24 2
  38   21   22 1
  39   22   23 2
  40   22   25 1
  41   23   24 1
  42   23   43 1
  43   24   44 1
  44   26   27 1
  45   26   30 1
  46   26   45 1
  47   27   28 1
  48   28   29 1
  49   28   46 1
  50   28   47 1
  51   29   30 1
  52   29   48 1
  53   29   49 1
  54   30   50 1
  55   30   51 1

#	End of record

