#	Name: ASD00960230
#	Creating user name:	WinNT
#	Creation time:	15. 06. 2019 18:53

#	Modifying user name:	WinNT
#	Modification time:	15. 06. 2019 18:53

#	Program:	/corina/corina34_cracker 3.40 0067  02.08.2006

@<TRIPOS>MOLECULE
ASD00960230
  38   40    0    0    0
SMALL
NO_CHARGES


@<TRIPOS>ATOM
   1 C1            -0.0169     1.3934     0.0097 C.2     
   2 N2             2.1220     0.7333    -0.0143 N.pl3   
   3 C3             1.3487    -0.3972    -0.0130 C.2     
   4 C4             0.0021    -0.0041     0.0020 C.2     
   5 N5             3.5168     0.5887    -0.0288 N.2     
   6 C6             4.0509    -0.6047    -0.0406 C.2     
   7 N7             3.3113    -1.7087    -0.0399 N.2     
   8 C8             1.9898    -1.6553    -0.0254 C.2     
   9 N9             1.2444    -2.8182    -0.0250 N.pl3   
  10 C10           -1.1377    -0.8709     0.0090 C.1     
  11 C11           -2.0722    -1.5816     0.0146 C.1     
  12 C12            1.3010     1.8278    -0.0005 C.2     
  13 C13           -3.2438    -2.4727     0.0218 C.3     
  14 O14           -4.4384    -1.6886     0.0371 O.3     
  15 C15            1.7393     3.2229     0.0020 C.2     
  16 O16            0.9165     4.1190     0.0145 O.2     
  17 O17            3.0563     3.5164    -0.0094 O.3     
  18 C18            3.4126     4.9002    -0.0061 C.3     
  19 C19            4.9138     5.0324    -0.0201 C.ar    
  20 C20            5.5906     5.0989    -1.2236 C.ar    
  21 C21            6.9675     5.2201    -1.2364 C.ar    
  22 C22            7.6676     5.2753    -0.0458 C.ar    
  23 C23            6.9908     5.2097     1.1577 C.ar    
  24 C24            5.6134     5.0928     1.1706 C.ar    
  25 H25           -0.8962     2.0203     0.0175 H       
  26 H26            5.1270    -0.6960    -0.0517 H       
  27 H27            1.6898    -3.6798    -0.0353 H       
  28 H28            0.2755    -2.7732    -0.0143 H       
  29 H29           -3.2306    -3.0973    -0.8714 H       
  30 H30           -3.2133    -3.1058     0.9085 H       
  31 H31           -5.2519    -2.2114     0.0425 H       
  32 H32            2.9970     5.3846    -0.8897 H       
  33 H33            3.0144     5.3758     0.8902 H       
  34 H34            5.0436     5.0558    -2.1538 H       
  35 H35            7.4963     5.2714    -2.1767 H       
  36 H36            8.7435     5.3693    -0.0558 H       
  37 H37            7.5378     5.2524     2.0880 H       
  38 H38            5.0843     5.0454     2.1109 H       
@<TRIPOS>BOND
   1    1    4 1
   2    1   12 2
   3    1   25 1
   4    2    3 1
   5    2    5 1
   6    2   12 1
   7    3    4 2
   8    3    8 1
   9    4   10 1
  10    5    6 2
  11    6    7 1
  12    6   26 1
  13    7    8 2
  14    8    9 1
  15    9   27 1
  16    9   28 1
  17   10   11 3
  18   11   13 1
  19   12   15 1
  20   13   14 1
  21   13   29 1
  22   13   30 1
  23   14   31 1
  24   15   16 2
  25   15   17 1
  26   17   18 1
  27   18   19 1
  28   18   32 1
  29   18   33 1
  30   19   20 ar
  31   19   24 ar
  32   20   21 ar
  33   20   34 1
  34   21   22 ar
  35   21   35 1
  36   22   23 ar
  37   22   36 1
  38   23   24 ar
  39   23   37 1
  40   24   38 1

#	End of record

