#	Name: ASD01883020
#	Creating user name:	WinNT
#	Creation time:	15. 06. 2019 19:45

#	Modifying user name:	WinNT
#	Modification time:	15. 06. 2019 19:45

#	Program:	/corina/corina34_cracker 3.40 0067  02.08.2006

@<TRIPOS>MOLECULE
ASD01883020
  52   55    0    0    0
SMALL
NO_CHARGES


@<TRIPOS>ATOM
   1 N1            -0.0162     1.3417     0.0094 N.am    
   2 C2             0.0021    -0.0041     0.0020 C.2     
   3 C3            -1.2159    -0.7274     0.0102 C.2     
   4 C4            -2.4262    -0.0109     0.0261 C.2     
   5 C5            -2.3786     1.3974     0.0332 C.2     
   6 C6            -1.1851     2.0327     0.0299 C.2     
   7 O7             1.0657    -0.6000    -0.0122 O.2     
   8 C8            -1.2149    -2.1593     0.0021 C.1     
   9 N9            -1.2141    -3.2953    -0.0044 N.1     
  10 C10            1.2513     2.0763     0.0013 C.3     
  11 C11            1.6788     2.3398    -1.4440 C.3     
  12 C12           -5.7772    -1.2777     1.1454 C.ar    
  13 C13           -4.5704    -0.6151     1.1399 C.ar    
  14 C14           -3.7215    -0.7207     0.0347 C.ar    
  15 C15           -4.1007    -1.4987    -1.0624 C.ar    
  16 C16           -5.3097    -2.1591    -1.0514 C.ar    
  17 C17           -6.1530    -2.0516     0.0516 C.ar    
  18 Cl18          -5.7826    -3.1256    -2.4138 Cl      
  19 N19           -7.3747    -2.7201     0.0603 N.pl3   
  20 C20           -8.8467    -3.5759     3.4451 C.3     
  21 O21          -10.1756    -3.7934     2.9666 O.3     
  22 C22          -10.6189    -2.8239     2.0149 C.3     
  23 C23           -9.7088    -2.8653     0.7846 C.3     
  24 C24           -8.2629    -2.6080     1.2199 C.3     
  25 C25           -7.8654    -3.6476     2.2723 C.3     
  26 C26            3.6601     3.3661    -2.8095 C.3     
  27 C27            3.0025     3.1070    -1.4525 C.3     
  28 C28            2.9983     4.5164    -2.0479 C.3     
  29 H29           -3.2949     1.9690     0.0454 H       
  30 H30           -1.1610     3.1124     0.0358 H       
  31 H31            1.1243     3.0257     0.5214 H       
  32 H32            2.0168     1.4857     0.5046 H       
  33 H33            1.8057     1.3903    -1.9642 H       
  34 H34            0.9133     2.9303    -1.9474 H       
  35 H35           -6.4313    -1.1998     2.0012 H       
  36 H36           -4.2798    -0.0145     1.9891 H       
  37 H37           -3.4470    -1.5820    -1.9181 H       
  38 H38           -7.6375    -3.2601    -0.7015 H       
  39 H39           -8.7846    -2.5927     3.9115 H       
  40 H40           -8.5942    -4.3425     4.1777 H       
  41 H41          -11.6431    -3.0487     1.7172 H       
  42 H42          -10.5800    -1.8308     2.4626 H       
  43 H43           -9.7782    -3.8455     0.3130 H       
  44 H44          -10.0184    -2.0966     0.0765 H       
  45 H45           -8.1830    -1.6082     1.6466 H       
  46 H46           -6.8566    -3.4383     2.6281 H       
  47 H47           -7.8976    -4.6436     1.8307 H       
  48 H48            4.7491     3.3514    -2.8520 H       
  49 H49            3.1497     2.9901    -3.6961 H       
  50 H50            3.6589     2.9217    -0.6023 H       
  51 H51            3.6520     5.2583    -1.5894 H       
  52 H52            2.0525     4.8970    -2.4335 H       
@<TRIPOS>BOND
   1    1    2 am
   2    1   10 1
   3    1    6 1
   4    2    3 1
   5    2    7 2
   6    3    4 2
   7    3    8 1
   8    4    5 1
   9    4   14 1
  10    5    6 2
  11    5   29 1
  12    6   30 1
  13    8    9 3
  14   10   11 1
  15   10   31 1
  16   10   32 1
  17   11   27 1
  18   11   33 1
  19   11   34 1
  20   12   13 ar
  21   12   17 ar
  22   12   35 1
  23   13   14 ar
  24   13   36 1
  25   14   15 ar
  26   15   16 ar
  27   15   37 1
  28   16   17 ar
  29   16   18 1
  30   17   19 1
  31   19   24 1
  32   19   38 1
  33   20   21 1
  34   20   25 1
  35   20   39 1
  36   20   40 1
  37   21   22 1
  38   22   23 1
  39   22   41 1
  40   22   42 1
  41   23   24 1
  42   23   43 1
  43   23   44 1
  44   24   25 1
  45   24   45 1
  46   25   46 1
  47   25   47 1
  48   26   27 1
  49   26   28 1
  50   26   48 1
  51   26   49 1
  52   27   28 1
  53   27   50 1
  54   28   51 1
  55   28   52 1

#	End of record

