#	Name: ASD01820103
#	Creating user name:	WinNT
#	Creation time:	15. 06. 2019 19:36

#	Modifying user name:	WinNT
#	Modification time:	15. 06. 2019 19:36

#	Program:	/corina/corina34_cracker 3.40 0067  02.08.2006

@<TRIPOS>MOLECULE
ASD01820103
  88   90    0    0    0
SMALL
NO_CHARGES


@<TRIPOS>ATOM
   1 C1            -0.0171     1.4063     0.0098 C.ar    
   2 C2             1.1939     2.1352     0.0021 C.ar    
   3 C3             2.3960     1.4434    -0.0131 C.ar    
   4 C4             2.4017     0.0535    -0.0211 C.ar    
   5 C5             1.2418    -0.6668    -0.0139 C.ar    
   6 C6             0.0021    -0.0041     0.0020 C.ar    
   7 C7            -1.2192    -0.7003     0.0104 C.ar    
   8 C8            -2.3982    -0.0119     0.0254 C.ar    
   9 C9            -2.4303     1.3776     0.0332 C.ar    
  10 C10           -1.2473     2.1018     0.0312 C.ar    
  11 N11           -0.0555     4.2364     0.0263 N.am    
  12 C12            1.1333     3.6042     0.0111 C.2     
  13 C13           -1.2267     3.5720     0.0392 C.2     
  14 C14           -0.0755     5.7013     0.0349 C.3     
  15 C15           -0.0965     6.2194    -1.4045 C.3     
  16 C16           -0.1173     7.7493    -1.3956 C.3     
  17 N17           -0.1375     8.2468    -2.7776 N.4     
  18 C18           -0.1574     9.7156    -2.7690 C.3     
  19 C19           -0.1777    10.2142    -4.1539 C.1     
  20 C20           -0.1554     7.6247    -7.2428 C.1     
  21 C21           -0.1270     6.1743    -6.9935 C.3     
  22 N22           -0.1243     5.4570    -8.2754 N.4     
  23 C23           -0.0960     4.0095    -8.0266 C.3     
  24 C24           -0.0933     3.2907    -9.3112 C.1     
  25 C25           -0.0912     2.7175   -10.3357 C.1     
  26 C26           -0.0885     1.9987   -11.6203 C.3     
  27 O27           -0.0609     0.5907   -11.3782 O.3     
  28 C28           -0.0549    -0.2185   -12.4616 C.2     
  29 O29           -0.0527    -0.9082   -14.6006 O.3     
  30 C30           -0.4339    -2.1001   -13.8853 C.3     
  31 C31           -0.0332    -1.7350   -12.4357 C.3     
  32 N32           -0.0722     0.1647   -13.6801 N.2     
  33 C33           -1.3364     5.8002    -9.0311 C.3     
  34 C34            1.0620     5.8439    -9.0506 C.3     
  35 O35            2.1625     4.2519    -0.0001 O.2     
  36 O36           -2.2732     4.1913     0.0575 O.2     
  37 C37            1.0617     7.7775    -3.4845 C.3     
  38 C38           -1.3368     7.7448    -3.4613 C.3     
  39 C39           -0.1781     8.7815    -7.4417 C.1     
  40 C40           -0.1938    10.6118    -5.2584 C.1     
  41 C41           -0.2135    11.0968    -6.6056 C.ar    
  42 C42           -0.2346    12.4681    -6.8576 C.ar    
  43 C43           -0.2536    12.9302    -8.1574 C.ar    
  44 C44           -0.2522    12.0402    -9.2189 C.ar    
  45 C45           -0.2319    10.6797    -8.9905 C.ar    
  46 C46           -0.2057    10.1925    -7.6843 C.ar    
  47 H47            3.3298     1.9860    -0.0191 H       
  48 H48            3.3466    -0.4694    -0.0336 H       
  49 H49            1.2767    -1.7462    -0.0208 H       
  50 H50           -1.2248    -1.7803     0.0047 H       
  51 H51           -3.3286    -0.5604     0.0310 H       
  52 H52           -3.3784     1.8946     0.0450 H       
  53 H53           -0.9652     6.0495     0.5594 H       
  54 H54            0.8145     6.0738     0.5422 H       
  55 H55            0.7933     5.8712    -1.9291 H       
  56 H56           -0.9864     5.8469    -1.9118 H       
  57 H57           -1.0071     8.0975    -0.8710 H       
  58 H58            0.7727     8.1218    -0.8883 H       
  59 H59           -1.0472    10.0639    -2.2445 H       
  60 H60            0.7325    10.0882    -2.2617 H       
  61 H61            0.7723     5.9195    -6.4327 H       
  62 H62           -1.0073     5.8871    -6.4183 H       
  63 H63            0.8034     3.7548    -7.4658 H       
  64 H64           -0.9762     3.7224    -7.4514 H       
  65 H65           -0.9878     2.2534   -12.1810 H       
  66 H66            0.7918     2.2858   -12.1954 H       
  67 H67           -1.5071    -2.2750   -13.9613 H       
  68 H68            0.1274    -2.9648   -14.2396 H       
  69 H69            0.9663    -2.1040   -12.2057 H       
  70 H70           -0.7628    -2.1205   -11.7236 H       
  71 H71           -1.3574     6.8743    -9.2158 H       
  72 H72           -1.3344     5.2680    -9.9823 H       
  73 H73           -2.2166     5.5131    -8.4560 H       
  74 H74            1.9614     5.5892    -8.4898 H       
  75 H75            1.0640     5.3117   -10.0018 H       
  76 H76            1.0410     6.9179    -9.2352 H       
  77 H77            1.0765     6.6876    -3.4909 H       
  78 H78            1.0467     8.1467    -4.5100 H       
  79 H79            1.9516     8.1500    -2.9772 H       
  80 H80           -2.2266     8.0930    -2.9368 H       
  81 H81           -1.3518     8.1140    -4.4868 H       
  82 H82           -1.3220     6.6549    -3.4677 H       
  83 H83           -0.2365    13.1683    -6.0354 H       
  84 H84           -0.2699    13.9930    -8.3486 H       
  85 H85           -0.2675    12.4137   -10.2321 H       
  86 H86           -0.2313     9.9922    -9.8234 H       
  87 Br87           8.3466    18.9930     5.5594 Br      
  88 Br88          13.3466    23.9930    10.5594 Br      
@<TRIPOS>BOND
   1    1    6 ar
   2    1    2 ar
   3    1   10 ar
   4    2    3 ar
   5    2   12 1
   6    3    4 ar
   7    3   47 1
   8    4    5 ar
   9    4   48 1
  10    5    6 ar
  11    5   49 1
  12    6    7 ar
  13    7    8 ar
  14    7   50 1
  15    8    9 ar
  16    8   51 1
  17    9   10 ar
  18    9   52 1
  19   10   13 1
  20   11   12 am
  21   11   13 am
  22   11   14 1
  23   12   35 2
  24   13   36 2
  25   14   15 1
  26   14   53 1
  27   14   54 1
  28   15   16 1
  29   15   55 1
  30   15   56 1
  31   16   17 1
  32   16   57 1
  33   16   58 1
  34   17   18 1
  35   17   37 1
  36   17   38 1
  37   18   19 1
  38   18   59 1
  39   18   60 1
  40   19   40 3
  41   20   21 1
  42   20   39 3
  43   21   22 1
  44   21   61 1
  45   21   62 1
  46   22   23 1
  47   22   33 1
  48   22   34 1
  49   23   24 1
  50   23   63 1
  51   23   64 1
  52   24   25 3
  53   25   26 1
  54   26   27 1
  55   26   65 1
  56   26   66 1
  57   27   28 1
  58   28   32 2
  59   28   31 1
  60   29   30 1
  61   29   32 1
  62   30   31 1
  63   30   67 1
  64   30   68 1
  65   31   69 1
  66   31   70 1
  67   33   71 1
  68   33   72 1
  69   33   73 1
  70   34   74 1
  71   34   75 1
  72   34   76 1
  73   37   77 1
  74   37   78 1
  75   37   79 1
  76   38   80 1
  77   38   81 1
  78   38   82 1
  79   39   46 1
  80   40   41 1
  81   41   42 ar
  82   41   46 ar
  83   42   43 ar
  84   42   83 1
  85   43   44 ar
  86   43   84 1
  87   44   45 ar
  88   44   85 1
  89   45   46 ar
  90   45   86 1

#	End of record

