#	Name: ASD07300149
#	Creating user name:	WinNT
#	Creation time:	15. 06. 2019 21:09

#	Modifying user name:	WinNT
#	Modification time:	15. 06. 2019 21:09

#	Program:	/corina/corina34_cracker 3.40 0067  02.08.2006

@<TRIPOS>MOLECULE
ASD07300149
  48   52    0    0    0
SMALL
NO_CHARGES


@<TRIPOS>ATOM
   1 C1             0.7168     1.8304     0.7646 C.ar    
   2 C2             0.9403     0.4577     0.7615 C.ar    
   3 C3             2.1816    -0.0451     1.0824 C.ar    
   4 C4             3.1925     0.8529     1.4057 C.ar    
   5 C5             2.9128     2.2052     1.3921 C.ar    
   6 N6             1.7137     2.6522     1.0804 N.ar    
   7 N7            -0.6040     2.1004     0.4165 N.am    
   8 C8            -0.3667    -0.1879     0.3680 C.3     
   9 C9            -1.3076     0.9823     0.1722 C.2     
  10 O10           -2.4754     0.9218    -0.1496 O.2     
  11 C11           -1.1393     3.3934     0.3307 C.ar    
  12 C12           -0.3391     4.4957     0.6001 C.ar    
  13 C13           -0.8666     5.7688     0.5150 C.ar    
  14 C14           -2.1963     5.9468     0.1607 C.ar    
  15 C15           -2.9963     4.8456    -0.1087 C.ar    
  16 C16           -2.4683     3.5724    -0.0294 C.ar    
  17 O17           -2.7155     7.2005     0.0779 O.3     
  18 C18           -2.2507     9.6536    -2.4078 C.ar    
  19 C19           -1.5819     8.5340    -2.9344 C.ar    
  20 C20           -0.9539     8.6435    -4.1780 C.ar    
  21 C21           -1.0199     9.8570    -4.8380 C.ar    
  22 C22           -1.6974    10.9152    -4.2555 C.ar    
  23 N23           -2.2834    10.7911    -3.0816 N.ar    
  24 C24           -2.4012     7.9478    -1.0050 C.2     
  25 N25           -2.7584     9.2526    -1.1873 N.pl3   
  26 N26           -1.7146     7.5257    -2.0349 N.2     
  27 C27           -3.5366    10.0764    -0.2589 C.3     
  28 C28           -0.2044    -0.9795    -0.9312 C.3     
  29 C29           -0.8768    -1.0943     1.4901 C.3     
  30 H30            2.3649    -1.1095     1.0832 H       
  31 H31            4.1797     0.4989     1.6634 H       
  32 H32            3.6922     2.9097     1.6423 H       
  33 H33            0.6957     4.3572     0.8766 H       
  34 H34           -0.2443     6.6262     0.7245 H       
  35 H35           -4.0312     4.9847    -0.3844 H       
  36 H36           -3.0900     2.7155    -0.2434 H       
  37 H37           -0.4313     7.8037    -4.6116 H       
  38 H38           -0.5461     9.9787    -5.8008 H       
  39 H39           -1.7467    11.8613    -4.7739 H       
  40 H40           -4.5976     9.9794    -0.4887 H       
  41 H41           -3.3542     9.7433     0.7629 H       
  42 H42           -3.2368    11.1195    -0.3599 H       
  43 H43            0.5464    -1.7572    -0.7914 H       
  44 H44           -1.1566    -1.4376    -1.1989 H       
  45 H45            0.1126    -0.3077    -1.7288 H       
  46 H46           -1.0319    -0.5031     2.3926 H       
  47 H47           -1.8194    -1.5508     1.1883 H       
  48 H48           -0.1423    -1.8749     1.6889 H       
@<TRIPOS>BOND
   1    1    2 ar
   2    1    6 ar
   3    1    7 1
   4    2    3 ar
   5    2    8 1
   6    3    4 ar
   7    3   30 1
   8    4    5 ar
   9    4   31 1
  10    5    6 ar
  11    5   32 1
  12    7    9 am
  13    7   11 1
  14    8    9 1
  15    8   28 1
  16    8   29 1
  17    9   10 2
  18   11   12 ar
  19   11   16 ar
  20   12   13 ar
  21   12   33 1
  22   13   14 ar
  23   13   34 1
  24   14   15 ar
  25   14   17 1
  26   15   16 ar
  27   15   35 1
  28   16   36 1
  29   17   24 1
  30   18   19 ar
  31   18   23 ar
  32   18   25 1
  33   19   20 ar
  34   19   26 1
  35   20   21 ar
  36   20   37 1
  37   21   22 ar
  38   21   38 1
  39   22   23 ar
  40   22   39 1
  41   24   25 1
  42   24   26 2
  43   25   27 1
  44   27   40 1
  45   27   41 1
  46   27   42 1
  47   28   43 1
  48   28   44 1
  49   28   45 1
  50   29   46 1
  51   29   47 1
  52   29   48 1

#	End of record

