#	Name: ASD01881561
#	Creating user name:	WinNT
#	Creation time:	15. 06. 2019 19:42

#	Modifying user name:	WinNT
#	Modification time:	15. 06. 2019 19:42

#	Program:	/corina/corina34_cracker 3.40 0067  02.08.2006

@<TRIPOS>MOLECULE
ASD01881561
  50   54    0    0    0
SMALL
NO_CHARGES


@<TRIPOS>ATOM
   1 C1             1.3018    -0.0589    -0.5099 C.2     
   2 C2             1.7205    -1.3545    -0.1199 C.2     
   3 C3             0.8831    -2.4017    -0.2387 C.2     
   4 N4            -0.3783    -2.2360    -0.7340 N.pl3   
   5 C5            -0.8232    -0.9955    -1.1232 C.2     
   6 C6             0.0244     0.1192    -1.0071 C.2     
   7 C7            -1.4144    -3.0901    -0.9606 C.2     
   8 N8            -2.4029    -2.3888    -1.4522 N.2     
   9 N9            -2.0661    -1.1511    -1.5529 N.2     
  10 C10           -1.4208    -4.5733    -0.6936 C.3     
  11 C11            2.2218     1.0951    -0.3806 C.ar    
  12 C12           -1.9146    -4.8329     0.7310 C.3     
  13 C13            2.6427     1.5153     0.8812 C.ar    
  14 C14            3.5000     2.5910     0.9977 C.ar    
  15 C15            3.9431     3.2545    -0.1413 C.ar    
  16 C16            3.5247     2.8377    -1.3977 C.ar    
  17 C17            2.6734     1.7600    -1.5207 C.ar    
  18 F18            3.9084     2.9996     2.2190 F       
  19 O19            4.7870     4.3131    -0.0243 O.3     
  20 C20           -2.1056    -6.2896     1.1580 C.3     
  21 C21           -0.9335    -5.4774     1.7123 C.3     
  22 C22            5.1088     5.0000    -1.1517 C.ar    
  23 C23            4.3246     6.0684    -1.5752 C.ar    
  24 C24            4.6932     6.7385    -2.7307 C.ar    
  25 C25            5.8189     6.3272    -3.4194 C.ar    
  26 N26            6.5407     5.3100    -2.9911 N.ar    
  27 C27            6.2278     4.6497    -1.8941 C.ar    
  28 C28            3.8762     7.9017    -3.2309 C.3     
  29 C29           -0.4481     1.4865    -1.4294 C.3     
  30 F30           -0.2427     1.6469    -2.8040 F       
  31 F31           -1.8112     1.6178    -1.1432 F       
  32 F32            0.2709     2.4640    -0.7333 F       
  33 H33            2.7151    -1.5027     0.2739 H       
  34 H34            1.2134    -3.3853     0.0612 H       
  35 H35           -2.0839    -5.0674    -1.4037 H       
  36 H36           -0.4105    -4.9669    -0.8054 H       
  37 H37           -2.6131    -4.0963     1.1280 H       
  38 H38            2.2982     1.0000     1.7656 H       
  39 H39            3.8703     3.3553    -2.2803 H       
  40 H40            2.3490     1.4367    -2.4988 H       
  41 H41           -2.9296    -6.5114     1.8362 H       
  42 H42           -1.8795    -7.0630     0.4240 H       
  43 H43            0.0638    -5.7164     1.3430 H       
  44 H44           -0.9863    -5.1648     2.7552 H       
  45 H45            3.4497     6.3678    -1.0172 H       
  46 H46            6.1110     6.8457    -4.3206 H       
  47 H47            6.8433     3.8217    -1.5747 H       
  48 H48            4.2548     8.8260    -2.7945 H       
  49 H49            3.9488     7.9564    -4.3171 H       
  50 H50            2.8339     7.7642    -2.9430 H       
@<TRIPOS>BOND
   1    1    2 1
   2    1   11 1
   3    1    6 2
   4    2    3 2
   5    2   33 1
   6    3    4 1
   7    3   34 1
   8    4    5 1
   9    4    7 1
  10    5    6 1
  11    5    9 2
  12    6   29 1
  13    7    8 2
  14    7   10 1
  15    8    9 1
  16   10   12 1
  17   10   35 1
  18   10   36 1
  19   11   13 ar
  20   11   17 ar
  21   12   20 1
  22   12   21 1
  23   12   37 1
  24   13   14 ar
  25   13   38 1
  26   14   15 ar
  27   14   18 1
  28   15   16 ar
  29   15   19 1
  30   16   17 ar
  31   16   39 1
  32   17   40 1
  33   19   22 1
  34   20   21 1
  35   20   41 1
  36   20   42 1
  37   21   43 1
  38   21   44 1
  39   22   23 ar
  40   22   27 ar
  41   23   24 ar
  42   23   45 1
  43   24   25 ar
  44   24   28 1
  45   25   26 ar
  46   25   46 1
  47   26   27 ar
  48   27   47 1
  49   28   48 1
  50   28   49 1
  51   28   50 1
  52   29   30 1
  53   29   31 1
  54   29   32 1

#	End of record

