#	Name: ASD04430051
#	Creating user name:	WinNT
#	Creation time:	15. 06. 2019 20:49

#	Modifying user name:	WinNT
#	Modification time:	15. 06. 2019 20:49

#	Program:	/corina/corina34_cracker 3.40 0067  02.08.2006

@<TRIPOS>MOLECULE
ASD04430051
  18   18    0    0    0
SMALL
NO_CHARGES


@<TRIPOS>ATOM
   1 C1            -0.0168     1.3847     0.0097 C.ar    
   2 C2             0.0021    -0.0041     0.0020 C.ar    
   3 N3            -1.1226    -0.6916     0.0091 N.ar    
   4 C4            -2.2998    -0.0978     0.0240 C.ar    
   5 C5            -2.4001     1.2813     0.0323 C.ar    
   6 C6            -1.2440     2.0437     0.0308 C.ar    
   7 N7             1.1773     2.1099     0.0021 N.pl3   
   8 N8             2.3751     1.4533    -0.0128 N.3     
   9 C9            -1.3118     3.5492     0.0402 C.3     
  10 H10            0.9476    -0.5259    -0.0102 H       
  11 H11           -3.1983    -0.6970     0.0293 H       
  12 H12           -3.3690     1.7583     0.0442 H       
  13 H13            1.1558     3.0797     0.0076 H       
  14 H14            3.1449     2.1056    -0.0167 H       
  15 H15            2.4467     0.8140     0.7645 H       
  16 H16           -1.3227     3.9059     1.0701 H       
  17 H17           -0.4419     3.9553    -0.4758 H       
  18 H18           -2.2200     3.8751    -0.4668 H       
@<TRIPOS>BOND
   1    1    2 ar
   2    1    7 1
   3    1    6 ar
   4    2    3 ar
   5    2   10 1
   6    3    4 ar
   7    4    5 ar
   8    4   11 1
   9    5    6 ar
  10    5   12 1
  11    6    9 1
  12    7    8 1
  13    7   13 1
  14    8   14 1
  15    8   15 1
  16    9   16 1
  17    9   17 1
  18    9   18 1

#	End of record

