#	Name: ASD01140634
#	Creating user name:	WinNT
#	Creation time:	15. 06. 2019 19:01

#	Modifying user name:	WinNT
#	Modification time:	15. 06. 2019 19:01

#	Program:	/corina/corina34_cracker 3.40 0067  02.08.2006

@<TRIPOS>MOLECULE
ASD01140634
  38   40    0    0    0
SMALL
NO_CHARGES


@<TRIPOS>ATOM
   1 C1            -0.0012     1.3406    -0.1882 C.2     
   2 C2             0.0213    -0.0180    -0.1306 C.2     
   3 C3             1.2478    -0.6885     0.0219 C.2     
   4 C4             2.4000     0.0117     0.1109 C.2     
   5 C5             1.2093     2.0572    -0.0939 C.2     
   6 N6             1.4772     3.3549    -0.1201 N.2     
   7 N7             2.3901     1.3771     0.0548 N.pl3   
   8 C8             3.3885     2.3082     0.1185 C.2     
   9 C9             2.8014     3.5327     0.0073 C.2     
  10 C10            3.5054     4.8390     0.0244 C.ar    
  11 C11            4.7022     4.9969    -0.6716 C.ar    
  12 C12            5.3535     6.2133    -0.6530 C.ar    
  13 C13            4.8194     7.2765     0.0568 C.ar    
  14 C14            3.6298     7.1238     0.7502 C.ar    
  15 C15            2.9687     5.9128     0.7319 C.ar    
  16 C16            4.8612     2.0326     0.2808 C.3     
  17 N17            5.4531     1.7536    -1.0300 N.am    
  18 C18            6.7684     1.4775    -1.1304 C.2     
  19 C19            7.3773     1.1905    -2.4787 C.3     
  20 O20            7.4620     1.4598    -0.1357 O.2     
  21 F21            1.2743    -2.0380     0.0800 F       
  22 F22            5.4608     8.4654     0.0731 F       
  23 C23            8.8725     0.9107    -2.3140 C.3     
  24 H24           -0.9372     1.8655    -0.3096 H       
  25 H25           -0.8987    -0.5793    -0.2013 H       
  26 H26            3.3371    -0.5123     0.2279 H       
  27 H27            5.1196     4.1684    -1.2246 H       
  28 H28            6.2811     6.3365    -1.1922 H       
  29 H29            3.2172     7.9551     1.3026 H       
  30 H30            2.0391     5.7960     1.2691 H       
  31 H31            5.3474     2.9030     0.7212 H       
  32 H32            4.9997     1.1703     0.9329 H       
  33 H33            4.8983     1.7677    -1.8256 H       
  34 H34            6.8911     0.3201    -2.9192 H       
  35 H35            7.2388     2.0529    -3.1309 H       
  36 H36            9.3587     1.7811    -1.8736 H       
  37 H37            9.0110     0.0484    -1.6618 H       
  38 H38            9.3129     0.7031    -3.2892 H       
@<TRIPOS>BOND
   1    1    2 2
   2    1    5 1
   3    1   24 1
   4    2    3 1
   5    2   25 1
   6    3    4 2
   7    3   21 1
   8    4    7 1
   9    4   26 1
  10    5    7 1
  11    5    6 2
  12    6    9 1
  13    7    8 1
  14    8    9 2
  15    8   16 1
  16    9   10 1
  17   10   11 ar
  18   10   15 ar
  19   11   12 ar
  20   11   27 1
  21   12   13 ar
  22   12   28 1
  23   13   14 ar
  24   13   22 1
  25   14   15 ar
  26   14   29 1
  27   15   30 1
  28   16   17 1
  29   16   31 1
  30   16   32 1
  31   17   18 am
  32   17   33 1
  33   18   19 1
  34   18   20 2
  35   19   23 1
  36   19   34 1
  37   19   35 1
  38   23   36 1
  39   23   37 1
  40   23   38 1

#	End of record

