#	Name: ASD03731307
#	Creating user name:	WinNT
#	Creation time:	15. 06. 2019 20:45

#	Modifying user name:	WinNT
#	Modification time:	15. 06. 2019 20:45

#	Program:	/corina/corina34_cracker 3.40 0067  02.08.2006

@<TRIPOS>MOLECULE
ASD03731307
  75   82    0    0    0
SMALL
NO_CHARGES


@<TRIPOS>ATOM
   1 C1            -1.3219     0.6303    -0.2393 C.2     
   2 C2            -1.9020    -0.7086    -0.4778 C.ar    
   3 C3            -1.0753    -1.8321    -0.5267 C.ar    
   4 C4            -1.6230    -3.0786    -0.7491 C.ar    
   5 C5            -2.9886    -3.2163    -0.9239 C.ar    
   6 C6            -3.8137    -2.1067    -0.8766 C.ar    
   7 C7            -3.2794    -0.8553    -0.6492 C.ar    
   8 O8            -0.1226     0.7544    -0.0853 O.2     
   9 N9            -2.1223     1.7139    -0.1982 N.am    
  10 C10           -3.5798    -4.5809    -1.1675 C.3     
  11 O11           -5.1405    -1.9637     5.3445 O.3     
  12 C12           -5.5514    -2.1124     6.7164 C.3     
  13 O13           -6.5676    -3.1309     6.6609 O.3     
  14 C14           -6.2653    -3.8900     5.5667 C.ar    
  15 C15           -5.3886    -3.1713     4.7572 C.ar    
  16 C16           -6.6732    -5.1571     5.1904 C.ar    
  17 C17           -6.2149    -5.7220     4.0040 C.ar    
  18 C18           -5.3459    -4.9911     3.1996 C.ar    
  19 C19           -4.9325    -3.7300     3.5750 C.ar    
  20 O20           -6.4762    -6.9467     3.4636 O.3     
  21 C21           -5.0573    -5.8448     1.9938 C.3     
  22 C22           -6.1414    -6.9290     2.0625 C.3     
  23 N23           -3.9280    -5.1982     0.1147 N.am    
  24 C24           -5.1279    -5.0628     0.7138 C.2     
  25 C25           -3.6770    -6.4309     2.0263 C.ar    
  26 C26           -3.0055    -7.2346     2.9203 C.ar    
  27 C27           -1.7018    -7.6193     2.6625 C.ar    
  28 C28           -1.0747    -7.1941     1.5054 C.ar    
  29 C29           -1.7428    -6.3881     0.6073 C.ar    
  30 C30           -3.0555    -5.9963     0.8584 C.ar    
  31 O31           -6.0783    -4.4331     0.3000 O.2     
  32 C32           -1.5475     3.0405     0.0381 C.3     
  33 C33           -2.6633     4.0874     0.0369 C.3     
  34 C34           -3.5861     3.8394     1.2022 C.ar    
  35 C35           -3.0698     3.7156     2.4786 C.ar    
  36 C36           -3.9162     3.4880     3.5475 C.ar    
  37 C37           -5.2790     3.3847     3.3402 C.ar    
  38 C38           -5.7954     3.5094     2.0640 C.ar    
  39 C39           -4.9494     3.7413     0.9956 C.ar    
  40 C40           -2.0611     5.4636     0.1570 C.ar    
  41 C41           -2.4083     6.4512    -0.7458 C.ar    
  42 C42           -1.8558     7.7135    -0.6356 C.ar    
  43 C43           -0.9566     7.9884     0.3777 C.ar    
  44 C44           -0.6101     7.0011     1.2810 C.ar    
  45 C45           -1.1659     5.7400     1.1734 C.ar    
  46 H46           -0.0091    -1.7258    -0.3910 H       
  47 H47           -0.9844    -3.9487    -0.7872 H       
  48 H48           -4.8788    -2.2210    -1.0139 H       
  49 H49           -3.9251     0.0095    -0.6081 H       
  50 H50           -3.0789     1.6153    -0.3250 H       
  51 H51           -4.4765    -4.4845    -1.7796 H       
  52 H52           -2.8517    -5.2052    -1.6854 H       
  53 H53           -4.7146    -2.4396     7.3335 H       
  54 H54           -5.9658    -1.1782     7.0954 H       
  55 H55           -7.3519    -5.7116     5.8214 H       
  56 H56           -4.2516    -3.1766     2.9453 H       
  57 H57           -5.7445    -7.8939     1.7470 H       
  58 H58           -7.0067    -6.6499     1.4612 H       
  59 H59           -3.4970    -7.5653     3.8233 H       
  60 H60           -1.1751    -8.2504     3.3629 H       
  61 H61           -0.0569    -7.4943     1.3042 H       
  62 H62           -1.2462    -6.0597    -0.2938 H       
  63 H63           -1.0411     3.0504     1.0033 H       
  64 H64           -0.8314     3.2719    -0.7503 H       
  65 H65           -3.2264     4.0171    -0.8938 H       
  66 H66           -2.0051     3.7963     2.6405 H       
  67 H67           -3.5128     3.3906     4.5446 H       
  68 H68           -5.9403     3.2062     4.1752 H       
  69 H69           -6.8601     3.4283     1.9020 H       
  70 H70           -5.3532     3.8423    -0.0009 H       
  71 H71           -3.1108     6.2364    -1.5374 H       
  72 H72           -2.1265     8.4849    -1.3414 H       
  73 H73           -0.5244     8.9745     0.4633 H       
  74 H74            0.0927     7.2158     2.0725 H       
  75 H75           -0.8980     4.9696     1.8814 H       
@<TRIPOS>BOND
   1    1    2 1
   2    1    8 2
   3    1    9 am
   4    2    3 ar
   5    2    7 ar
   6    3    4 ar
   7    3   46 1
   8    4    5 ar
   9    4   47 1
  10    5    6 ar
  11    5   10 1
  12    6    7 ar
  13    6   48 1
  14    7   49 1
  15    9   32 1
  16    9   50 1
  17   10   23 1
  18   10   51 1
  19   10   52 1
  20   11   12 1
  21   11   15 1
  22   12   13 1
  23   12   53 1
  24   12   54 1
  25   13   14 1
  26   14   15 ar
  27   14   16 ar
  28   15   19 ar
  29   16   17 ar
  30   16   55 1
  31   17   18 ar
  32   17   20 1
  33   18   19 ar
  34   18   21 1
  35   19   56 1
  36   20   22 1
  37   21   22 1
  38   21   24 1
  39   21   25 1
  40   22   57 1
  41   22   58 1
  42   23   24 am
  43   23   30 1
  44   24   31 2
  45   25   26 ar
  46   25   30 ar
  47   26   27 ar
  48   26   59 1
  49   27   28 ar
  50   27   60 1
  51   28   29 ar
  52   28   61 1
  53   29   30 ar
  54   29   62 1
  55   32   33 1
  56   32   63 1
  57   32   64 1
  58   33   34 1
  59   33   40 1
  60   33   65 1
  61   34   35 ar
  62   34   39 ar
  63   35   36 ar
  64   35   66 1
  65   36   37 ar
  66   36   67 1
  67   37   38 ar
  68   37   68 1
  69   38   39 ar
  70   38   69 1
  71   39   70 1
  72   40   41 ar
  73   40   45 ar
  74   41   42 ar
  75   41   71 1
  76   42   43 ar
  77   42   72 1
  78   43   44 ar
  79   43   73 1
  80   44   45 ar
  81   44   74 1
  82   45   75 1

#	End of record

