#	Name: ASD01150705
#	Creating user name:	WinNT
#	Creation time:	15. 06. 2019 19:04

#	Modifying user name:	WinNT
#	Modification time:	15. 06. 2019 19:04

#	Program:	/corina/corina34_cracker 3.40 0067  02.08.2006

@<TRIPOS>MOLECULE
ASD01150705
  49   53    0    0    0
SMALL
NO_CHARGES


@<TRIPOS>ATOM
   1 C1            -0.0209     1.2433    -0.4317 C.2     
   2 O2            -0.6189     0.8456     0.5461 O.2     
   3 C3             3.5786     2.3569    -0.1128 C.ar    
   4 C4             3.3593     3.7252     0.0376 C.ar    
   5 S5             4.9027     4.5467     0.2184 S.3     
   6 C6             5.8075     3.0453     0.0876 C.2     
   7 C7             7.3200     2.9678     0.1671 C.3     
   8 C8             7.8629     2.1102    -0.9737 C.3     
   9 C9             7.9426     0.6569    -0.5146 C.3     
  10 C10            6.8020     0.3616     0.4572 C.3     
  11 C11            5.4650     0.5646    -0.2468 C.3     
  12 C12            4.9962     2.0029    -0.0829 C.2     
  13 N13            2.1154     4.2212     0.0297 N.ar    
  14 C14            1.0555     3.4671    -0.1152 C.ar    
  15 C15            1.1728     2.0788    -0.2713 C.ar    
  16 C16            2.4572     1.5011    -0.2761 C.ar    
  17 C17           -0.3118     4.1008    -0.1143 C.3     
  18 C18            2.6327     0.0417    -0.4361 C.ar    
  19 C19            2.1484    -0.8333     0.5381 C.ar    
  20 C20            2.3154    -2.1944     0.3830 C.ar    
  21 C21            2.9627    -2.6924    -0.7372 C.ar    
  22 C22            3.4451    -1.8287    -1.7058 C.ar    
  23 C23            3.2781    -0.4667    -1.5646 C.ar    
  24 Cl24           3.1699    -4.4057    -0.9259 Cl      
  25 Cl25           1.7142    -3.2847     1.5928 Cl      
  26 C26           -0.5017     0.8731    -1.8112 C.3     
  27 C27           -1.3301    -0.4055    -1.9511 C.3     
  28 C28           -2.0048     0.9614    -2.0827 C.3     
  29 H29            7.7375     3.9721     0.0945 H       
  30 H30            7.6096     2.5263     1.1206 H       
  31 H31            7.1974     2.1845    -1.8337 H       
  32 H32            8.8576     2.4597    -1.2505 H       
  33 H33            7.8620    -0.0016    -1.3794 H       
  34 H34            8.8969     0.4856    -0.0166 H       
  35 H35            6.8773    -0.6695     0.8027 H       
  36 H36            6.8687     1.0359     1.3109 H       
  37 H37            5.5778     0.3403    -1.3075 H       
  38 H38            4.7239    -0.1080     0.1851 H       
  39 H39           -0.6260     4.2883    -1.1410 H       
  40 H40           -1.0231     3.4293     0.3665 H       
  41 H41           -0.2751     5.0431     0.4324 H       
  42 H42            1.6446    -0.4459     1.4113 H       
  43 H43            3.9489    -2.2224    -2.5762 H       
  44 H44            3.6504     0.2055    -2.3236 H       
  45 H45            0.1735     1.1273    -2.6283 H       
  46 H46           -1.2003    -0.9923    -2.8604 H       
  47 H47           -1.5274    -0.9790    -1.0454 H       
  48 H48           -2.6459     1.2871    -1.2636 H       
  49 H49           -2.3188     1.2738    -3.0787 H       
@<TRIPOS>BOND
   1    1    2 2
   2    1   15 1
   3    1   26 1
   4    3    4 ar
   5    3   12 1
   6    3   16 ar
   7    4    5 1
   8    4   13 ar
   9    5    6 1
  10    6    7 1
  11    6   12 2
  12    7    8 1
  13    7   29 1
  14    7   30 1
  15    8    9 1
  16    8   31 1
  17    8   32 1
  18    9   10 1
  19    9   33 1
  20    9   34 1
  21   10   11 1
  22   10   35 1
  23   10   36 1
  24   11   12 1
  25   11   37 1
  26   11   38 1
  27   13   14 ar
  28   14   15 ar
  29   14   17 1
  30   15   16 ar
  31   16   18 1
  32   17   39 1
  33   17   40 1
  34   17   41 1
  35   18   19 ar
  36   18   23 ar
  37   19   20 ar
  38   19   42 1
  39   20   21 ar
  40   20   25 1
  41   21   22 ar
  42   21   24 1
  43   22   23 ar
  44   22   43 1
  45   23   44 1
  46   26   27 1
  47   26   28 1
  48   26   45 1
  49   27   28 1
  50   27   46 1
  51   27   47 1
  52   28   48 1
  53   28   49 1

#	End of record

