#	Name: ASD04882416
#	Creating user name:	WinNT
#	Creation time:	15. 06. 2019 20:54

#	Modifying user name:	WinNT
#	Modification time:	15. 06. 2019 20:54

#	Program:	/corina/corina34_cracker 3.40 0067  02.08.2006

@<TRIPOS>MOLECULE
ASD04882416
  80   85    0    0    0
SMALL
NO_CHARGES


@<TRIPOS>ATOM
   1 C1             0.4096     1.3466    -0.1095 C.ar    
   2 C2             0.2779    -0.0443    -0.0771 C.ar    
   3 C3            -0.9848    -0.6241    -0.0313 C.ar    
   4 C4            -2.1102     0.1696    -0.0181 C.ar    
   5 C5            -1.9857     1.5614    -0.0507 C.ar    
   6 C6            -0.7171     2.1469    -0.0901 C.ar    
   7 N7             1.4131    -0.8507    -0.0913 N.3     
   8 C8             1.4779    -1.6902     1.1132 C.3     
   9 C9             1.4586    -1.6748    -1.3072 C.3     
  10 C10            2.7568    -2.4853    -1.3226 C.3     
  11 N11            2.8215    -3.3248    -0.1182 N.3     
  12 C12            2.7761    -2.5006     1.0977 C.3     
  13 C13           -3.1915     2.4113    -0.0375 C.2     
  14 O14           -3.0822     3.6220    -0.0659 O.2     
  15 N15           -4.4141     1.8459     0.0061 N.am    
  16 C16           -5.6114     2.6900     0.0193 C.3     
  17 N17            1.6829     1.9296    -0.1558 N.am    
  18 C18            1.8714     3.1755     0.3223 C.2     
  19 O19            0.9238     3.8209     0.7285 O.2     
  20 C20            3.2259     3.7562     0.3527 C.2     
  21 N21            4.3727     3.1551    -0.0657 N.2     
  22 C22            5.3605     3.9787     0.1192 C.2     
  23 O23            4.8933     5.1163     0.6527 O.3     
  24 C24            3.5641     4.9966     0.7993 C.2     
  25 C25            3.9602    -4.1336    -0.1324 C.ar    
  26 C26            5.2233    -3.5568    -0.1786 C.ar    
  27 C27            3.8324    -5.5161    -0.0945 C.ar    
  28 C28            4.9605    -6.3130    -0.1087 C.ar    
  29 C29            6.2159    -5.7359    -0.1601 C.ar    
  30 C30            6.3469    -4.3594    -0.1926 C.ar    
  31 C31            2.4646    -6.1459    -0.0375 C.3     
  32 C32           -6.8586     1.8052     0.0703 C.3     
  33 C33           -8.0903     2.6734     0.0839 C.ar    
  34 C34            6.8036     3.6989    -0.2128 C.3     
  35 C35            7.4882     4.6226    -1.2222 C.3     
  36 C36            7.8471     4.7120     0.2624 C.3     
  37 C37           -8.5663     3.2305    -1.1039 C.ar    
  38 C38           -9.7078     4.0337    -1.0826 C.ar    
  39 C39          -10.3578     4.2717     0.1105 C.ar    
  40 C40           -9.8806     3.7162     1.2847 C.ar    
  41 C41           -8.7531     2.9147     1.2697 C.ar    
  42 C42           -7.8643     2.9716    -2.3790 C.2     
  43 N43           -8.2643     3.5922    -3.5066 N.am    
  44 O44           -6.9263     2.1992    -2.4105 O.2     
  45 H45           -1.0834    -1.6993    -0.0063 H       
  46 H46           -3.0898    -0.2838     0.0172 H       
  47 H47           -0.6178     3.2220    -0.1151 H       
  48 H48            1.4553    -1.0564     1.9998 H       
  49 H49            0.6254    -2.3692     1.1294 H       
  50 H50            0.6059    -2.3537    -1.3184 H       
  51 H51            1.4220    -1.0299    -2.1852 H       
  52 H52            2.7793    -3.1190    -2.2092 H       
  53 H53            3.6093    -1.8062    -1.3389 H       
  54 H54            3.6288    -1.8217     1.1090 H       
  55 H55            2.8126    -3.1455     1.9757 H       
  56 H56           -4.5013     0.8801     0.0288 H       
  57 H57           -5.5896     3.3379     0.8955 H       
  58 H58           -5.6357     3.3003    -0.8835 H       
  59 H59            2.4287     1.4364    -0.5318 H       
  60 H60            2.8921     5.7403     1.2014 H       
  61 H61            5.3263    -2.4821    -0.2040 H       
  62 H62            4.8619    -7.3880    -0.0793 H       
  63 H63            7.0964    -6.3612    -0.1704 H       
  64 H64            7.3290    -3.9118    -0.2327 H       
  65 H65            2.1036    -6.3230    -1.0507 H       
  66 H66            2.5229    -7.0934     0.4982 H       
  67 H67            1.7778    -5.4770     0.4811 H       
  68 H68           -6.8805     1.1572    -0.8059 H       
  69 H69           -6.8344     1.1948     0.9731 H       
  70 H70            7.0892     2.6470    -0.2189 H       
  71 H71            8.2244     4.1785    -1.8921 H       
  72 H72            6.8948     5.4327    -1.6462 H       
  73 H73            7.4898     5.5808     0.8152 H       
  74 H74            8.8194     4.3266     0.5692 H       
  75 H75          -10.0811     4.4681    -1.9982 H       
  76 H76          -11.2409     4.8932     0.1284 H       
  77 H77          -10.3930     3.9059     2.2163 H       
  78 H78           -8.3858     2.4842     2.1895 H       
  79 H79           -9.0128     4.2086    -3.4815 H       
  80 H80           -7.8037     3.4223    -4.3432 H       
@<TRIPOS>BOND
   1    1    2 ar
   2    1   17 1
   3    1    6 ar
   4    2    3 ar
   5    2    7 1
   6    3    4 ar
   7    3   45 1
   8    4    5 ar
   9    4   46 1
  10    5    6 ar
  11    5   13 1
  12    6   47 1
  13    7    8 1
  14    7    9 1
  15    8   12 1
  16    8   48 1
  17    8   49 1
  18    9   10 1
  19    9   50 1
  20    9   51 1
  21   10   11 1
  22   10   52 1
  23   10   53 1
  24   11   12 1
  25   11   25 1
  26   12   54 1
  27   12   55 1
  28   13   14 2
  29   13   15 am
  30   15   16 1
  31   15   56 1
  32   16   32 1
  33   16   57 1
  34   16   58 1
  35   17   18 am
  36   17   59 1
  37   18   19 2
  38   18   20 1
  39   20   21 1
  40   20   24 2
  41   21   22 2
  42   22   23 1
  43   22   34 1
  44   23   24 1
  45   24   60 1
  46   25   26 ar
  47   25   27 ar
  48   26   30 ar
  49   26   61 1
  50   27   28 ar
  51   27   31 1
  52   28   29 ar
  53   28   62 1
  54   29   30 ar
  55   29   63 1
  56   30   64 1
  57   31   65 1
  58   31   66 1
  59   31   67 1
  60   32   33 1
  61   32   68 1
  62   32   69 1
  63   33   37 ar
  64   33   41 ar
  65   34   35 1
  66   34   36 1
  67   34   70 1
  68   35   36 1
  69   35   71 1
  70   35   72 1
  71   36   73 1
  72   36   74 1
  73   37   38 ar
  74   37   42 1
  75   38   39 ar
  76   38   75 1
  77   39   40 ar
  78   39   76 1
  79   40   41 ar
  80   40   77 1
  81   41   78 1
  82   42   43 am
  83   42   44 2
  84   43   79 1
  85   43   80 1

#	End of record

