#	Name: ASD01911473
#	Creating user name:	WinNT
#	Creation time:	15. 06. 2019 19:57

#	Modifying user name:	WinNT
#	Modification time:	15. 06. 2019 19:57

#	Program:	/corina/corina34_cracker 3.40 0067  02.08.2006

@<TRIPOS>MOLECULE
ASD01911473
  45   46    0    0    0
SMALL
NO_CHARGES


@<TRIPOS>ATOM
   1 N1            -0.0179     1.3372     0.0445 N.am    
   2 C2             0.5708     0.8639     1.1563 C.2     
   3 C3             1.8079     0.0724     0.7933 C.3     
   4 C4             2.1088     0.4870    -0.6656 C.3     
   5 C5             0.7146     0.9313    -1.1608 C.3     
   6 O6             0.1690     1.0454     2.2861 O.2     
   7 C7            -1.1778     2.1089     0.0368 C.ar    
   8 C8            -2.4161     1.4854    -0.0830 C.ar    
   9 C9            -3.5616     2.2560    -0.0895 C.ar    
  10 C10           -3.4296     3.6463     0.0258 C.ar    
  11 C11           -2.1542     4.1974     0.1422 C.ar    
  12 N12           -1.0869     3.4251     0.1491 N.ar    
  13 C13           -4.5876     4.4887     0.0237 C.1     
  14 C14           -5.5370     5.1793     0.0220 C.1     
  15 Si15          -7.0734     6.2970     0.0193 Si      
  16 C16           -6.5474     8.0762     0.1876 C.3     
  17 C17           -8.0017     6.0725    -1.5803 C.3     
  18 C18           -8.1777     5.8381     1.4478 C.3     
  19 C19           -2.5056    -0.0140    -0.2048 C.3     
  20 C20            3.1021     1.6499    -0.7105 C.3     
  21 C21            2.6248    -0.7027    -1.4776 C.3     
  22 H22            2.6384     0.3422     1.4457 H       
  23 H23            1.6072    -0.9974     0.8522 H       
  24 H24            0.2056     0.1007    -1.6497 H       
  25 H25            0.8086     1.7733    -1.8466 H       
  26 H26           -4.5356     1.7985    -0.1815 H       
  27 H27           -2.0404     5.2677     0.2316 H       
  28 H28           -5.9013     8.3447    -0.6482 H       
  29 H29           -7.4288     8.7174     0.1860 H       
  30 H30           -6.0042     8.2075     1.1234 H       
  31 H31           -8.3095     5.0315    -1.6788 H       
  32 H32           -8.8832     6.7137    -1.5819 H       
  33 H33           -7.3556     6.3410    -2.4161 H       
  34 H34           -7.6346     5.9694     2.3837 H       
  35 H35           -9.0592     6.4793     1.4462 H       
  36 H36           -8.4855     4.7971     1.3493 H       
  37 H37           -2.4816    -0.4614     0.7889 H       
  38 H38           -3.4375    -0.2832    -0.7020 H       
  39 H39           -1.6624    -0.3821    -0.7894 H       
  40 H40            4.0434     1.3415    -0.2558 H       
  41 H41            3.2766     1.9388    -1.7470 H       
  42 H42            2.6937     2.4980    -0.1609 H       
  43 H43            1.8825    -1.5007    -1.4646 H       
  44 H44            2.8042    -0.3900    -2.5063 H       
  45 H45            3.5553    -1.0648    -1.0404 H       
@<TRIPOS>BOND
   1    1    2 am
   2    1    5 1
   3    1    7 1
   4    2    3 1
   5    2    6 2
   6    3    4 1
   7    3   22 1
   8    3   23 1
   9    4    5 1
  10    4   20 1
  11    4   21 1
  12    5   24 1
  13    5   25 1
  14    7    8 ar
  15    7   12 ar
  16    8    9 ar
  17    8   19 1
  18    9   10 ar
  19    9   26 1
  20   10   11 ar
  21   10   13 1
  22   11   12 ar
  23   11   27 1
  24   13   14 3
  25   14   15 1
  26   15   16 1
  27   15   17 1
  28   15   18 1
  29   16   28 1
  30   16   29 1
  31   16   30 1
  32   17   31 1
  33   17   32 1
  34   17   33 1
  35   18   34 1
  36   18   35 1
  37   18   36 1
  38   19   37 1
  39   19   38 1
  40   19   39 1
  41   20   40 1
  42   20   41 1
  43   20   42 1
  44   21   43 1
  45   21   44 1
  46   21   45 1

#	End of record

