#	Name: ASD04230182
#	Creating user name:	WinNT
#	Creation time:	15. 06. 2019 20:48

#	Modifying user name:	WinNT
#	Modification time:	15. 06. 2019 20:48

#	Program:	/corina/corina34_cracker 3.40 0067  02.08.2006

@<TRIPOS>MOLECULE
ASD04230182
  40   43    0    0    0
SMALL
NO_CHARGES


@<TRIPOS>ATOM
   1 C1             0.0765     1.3678     0.8481 C.2     
   2 C2             0.0733    -0.0868     0.6264 C.ar    
   3 C3            -1.1613    -0.7664     0.5515 C.ar    
   4 C4            -2.3785    -0.0589     0.6873 C.ar    
   5 C5            -2.3665     1.3409     0.9001 C.2     
   6 C6            -1.1620     2.0443     0.9862 C.2     
   7 C7             1.2598    -0.8002     0.4905 C.ar    
   8 C8             1.2303    -2.1696     0.2828 C.ar    
   9 C9             0.0347    -2.8512     0.2061 C.ar    
  10 C10           -1.1770    -2.1624     0.3389 C.ar    
  11 C11           -2.4211    -2.8364     0.2646 C.ar    
  12 C12           -3.6038    -2.1186     0.4014 C.ar    
  13 C13           -3.5903    -0.7569     0.6085 C.ar    
  14 O14            1.1287     1.9816     0.9171 O.2     
  15 N15           -3.5566     2.0168     1.0300 N.pl3   
  16 S16           -2.4690    -4.5776    -0.0007 S.3     
  17 C17           -4.1996    -4.8647     0.1644 C.ar    
  18 C18           -5.0145    -4.8663    -0.9609 C.ar    
  19 C19           -6.3703    -5.0919    -0.8305 C.ar    
  20 C20           -6.9192    -5.3164     0.4238 C.ar    
  21 C21           -6.1064    -5.3150     1.5482 C.ar    
  22 C22           -4.7495    -5.0953     1.4194 C.ar    
  23 C23           -1.1790     3.4598     1.2019 C.1     
  24 N24           -1.1925     4.5828     1.3730 N.1     
  25 O25           -8.2548    -5.5375     0.5512 O.3     
  26 C26           -8.7521    -5.7614     1.8720 C.3     
  27 H27            2.2072    -0.2846     0.5467 H       
  28 H28            2.1587    -2.7116     0.1789 H       
  29 H29            0.0326    -3.9188     0.0433 H       
  30 H30           -4.5493    -2.6375     0.3439 H       
  31 H31           -4.5231    -0.2223     0.7117 H       
  32 H32           -4.3965     1.5347     0.9757 H       
  33 H33           -3.5563     2.9757     1.1760 H       
  34 H34           -4.5876    -4.6909    -1.9373 H       
  35 H35           -7.0039    -5.0932    -1.7051 H       
  36 H36           -6.5347    -5.4895     2.5241 H       
  37 H37           -4.1169    -5.0943     2.2947 H       
  38 H38           -8.2678    -6.6398     2.2986 H       
  39 H39           -8.5388    -4.8914     2.4930 H       
  40 H40           -9.8292    -5.9239     1.8320 H       
@<TRIPOS>BOND
   1    1    2 1
   2    1   14 2
   3    1    6 1
   4    2    3 ar
   5    2    7 ar
   6    3    4 ar
   7    3   10 ar
   8    4    5 1
   9    4   13 ar
  10    5    6 2
  11    5   15 1
  12    6   23 1
  13    7    8 ar
  14    7   27 1
  15    8    9 ar
  16    8   28 1
  17    9   10 ar
  18    9   29 1
  19   10   11 ar
  20   11   12 ar
  21   11   16 1
  22   12   13 ar
  23   12   30 1
  24   13   31 1
  25   15   32 1
  26   15   33 1
  27   16   17 1
  28   17   18 ar
  29   17   22 ar
  30   18   19 ar
  31   18   34 1
  32   19   20 ar
  33   19   35 1
  34   20   21 ar
  35   20   25 1
  36   21   22 ar
  37   21   36 1
  38   22   37 1
  39   23   24 3
  40   25   26 1
  41   26   38 1
  42   26   39 1
  43   26   40 1

#	End of record

