#	Name: ASD03731815
#	Creating user name:	WinNT
#	Creation time:	15. 06. 2019 20:46

#	Modifying user name:	WinNT
#	Modification time:	15. 06. 2019 20:46

#	Program:	/corina/corina34_cracker 3.40 0067  02.08.2006

@<TRIPOS>MOLECULE
ASD03731815
  36   37    0    0    0
SMALL
NO_CHARGES


@<TRIPOS>ATOM
   1 C1             0.1205     1.4720    -0.0164 C.2     
   2 C2             0.1041    -0.0039    -0.0176 C.ar    
   3 C3             1.2952    -0.7176    -0.1767 C.ar    
   4 C4             1.2756    -2.0952    -0.1773 C.ar    
   5 C5             0.0719    -2.7752    -0.0202 C.ar    
   6 C6            -1.1139    -2.0683     0.1381 C.ar    
   7 C7            -1.1013    -0.6910     0.1459 C.ar    
   8 O8             1.1711     2.0684    -0.1539 O.2     
   9 N9            -1.0298     2.1586     0.1315 N.am    
  10 O10            0.0558    -4.1323    -0.0222 O.3     
  11 C11            0.2832    -4.7746     1.1535 C.ar    
  12 C12            0.2132    -6.1593     1.2139 C.ar    
  13 C13            0.4447    -6.8098     2.4101 C.ar    
  14 C14            0.7460    -6.0824     3.5470 C.ar    
  15 C15            0.8159    -4.7029     3.4897 C.ar    
  16 C16            0.5913    -4.0477     2.2943 C.ar    
  17 C17           -0.1156    -6.9526    -0.0246 C.3     
  18 F18           -0.1278    -8.3168     0.2850 F       
  19 F19           -1.3741    -6.5715    -0.5020 F       
  20 F20            0.8500    -6.7058    -1.0064 F       
  21 S21           -1.0113     3.8145     0.1328 S.o2    
  22 O22           -2.3700     4.1799     0.3325 O.2     
  23 O23           -0.0139     4.1531     1.0866 O.2     
  24 C24           -0.4709     4.2625    -1.5398 C.3     
  25 Cl25           2.7540    -2.9835    -0.3747 Cl      
  26 H26            2.2296    -0.1901    -0.2993 H       
  27 H27           -2.0463    -2.5996     0.2597 H       
  28 H28           -2.0229    -0.1426     0.2739 H       
  29 H29           -1.8684     1.6828     0.2372 H       
  30 H30            0.3900    -7.8873     2.4577 H       
  31 H31            0.9267    -6.5929     4.4814 H       
  32 H32            1.0507    -4.1371     4.3792 H       
  33 H33            0.6507    -2.9703     2.2489 H       
  34 H34           -1.1767     3.8640    -2.2686 H       
  35 H35           -0.4298     5.3480    -1.6298 H       
  36 H36            0.5185     3.8447    -1.7261 H       
@<TRIPOS>BOND
   1    1    2 1
   2    1    8 2
   3    1    9 am
   4    2    3 ar
   5    2    7 ar
   6    3    4 ar
   7    3   26 1
   8    4    5 ar
   9    4   25 1
  10    5    6 ar
  11    5   10 1
  12    6    7 ar
  13    6   27 1
  14    7   28 1
  15    9   21 am
  16    9   29 1
  17   10   11 1
  18   11   12 ar
  19   11   16 ar
  20   12   13 ar
  21   12   17 1
  22   13   14 ar
  23   13   30 1
  24   14   15 ar
  25   14   31 1
  26   15   16 ar
  27   15   32 1
  28   16   33 1
  29   17   18 1
  30   17   19 1
  31   17   20 1
  32   21   22 2
  33   21   23 2
  34   21   24 1
  35   24   34 1
  36   24   35 1
  37   24   36 1

#	End of record

