#	Name: ASD03331434
#	Creating user name:	WinNT
#	Creation time:	15. 06. 2019 20:39

#	Modifying user name:	WinNT
#	Modification time:	15. 06. 2019 20:39

#	Program:	/corina/corina34_cracker 3.40 0067  02.08.2006

@<TRIPOS>MOLECULE
ASD03331434
  50   52    0    0    0
SMALL
NO_CHARGES


@<TRIPOS>ATOM
   1 C1            -0.0119     0.7113     1.7945 C.ar    
   2 C2             0.0313    -0.7046     1.3686 C.2     
   3 N3            -0.9528    -1.6205     1.5591 N.pl3   
   4 C4            -0.5231    -2.8014     1.0248 C.2     
   5 C5             0.7139    -2.5845     0.5164 C.2     
   6 N6             1.0269    -1.2865     0.7370 N.2     
   7 C7             1.5631    -3.5810    -0.1599 C.2     
   8 N8             2.7797    -3.2283    -0.6201 N.am    
   9 C9            -0.9384     1.1262     2.7515 C.ar    
  10 O10            1.1660    -4.7217    -0.3027 O.2     
  11 C11            3.6240    -4.2190    -1.2924 C.3     
  12 C12            3.2462    -4.2901    -2.7734 C.3     
  13 C13            5.0706    -3.8176    -1.1618 C.2     
  14 C14            1.8194    -4.8251    -2.9106 C.3     
  15 C15           -2.2599    -1.4613     2.2027 C.3     
  16 C16           -3.1384    -2.6522     1.7959 C.3     
  17 O17           -2.4166    -3.8732     1.9791 O.3     
  18 C18           -1.3437    -4.0654     1.0450 C.3     
  19 C19            3.3277    -2.8914    -3.3882 C.3     
  20 O20            5.3606    -2.6663    -0.9143 O.2     
  21 N21            6.0423    -4.7382    -1.3199 N.am    
  22 C22            7.4416    -4.3743    -1.0836 C.3     
  23 C23           -0.9744     2.4496     3.1455 C.ar    
  24 C24           -0.0911     3.3647     2.5901 C.ar    
  25 C25            0.8297     2.9558     1.6392 C.ar    
  26 C26            0.8777     1.6351     1.2445 C.ar    
  27 F27           -0.1297     4.6583     2.9777 F       
  28 F28           -1.8707     2.8537     4.0721 F       
  29 H29            3.0963    -2.3185    -0.5062 H       
  30 H30           -1.6262     0.4142     3.1832 H       
  31 H31            3.4749    -5.1957    -0.8322 H       
  32 H32            3.9355    -4.9559    -3.2926 H       
  33 H33            1.1189    -4.1043    -2.4889 H       
  34 H34            1.5896    -4.9810    -3.9647 H       
  35 H35            1.7331    -5.7711    -2.3761 H       
  36 H36           -2.1378    -1.4467     3.2858 H       
  37 H37           -2.7229    -0.5319     1.8711 H       
  38 H38           -4.0371    -2.6667     2.4125 H       
  39 H39           -3.4211    -2.5524     0.7479 H       
  40 H40           -1.7487    -4.2589     0.0517 H       
  41 H41           -0.7235    -4.9038     1.3619 H       
  42 H42            4.3442    -2.5102    -3.2904 H       
  43 H43            3.0586    -2.9420    -4.4432 H       
  44 H44            2.6385    -2.2255    -2.8690 H       
  45 H45            5.8151    -5.6416    -1.5902 H       
  46 H46            7.7275    -3.5704    -1.7619 H       
  47 H47            7.5609    -4.0398    -0.0530 H       
  48 H48            8.0774    -5.2419    -1.2599 H       
  49 H49            1.5145     3.6719     1.2095 H       
  50 H50            1.5962     1.3182     0.5031 H       
@<TRIPOS>BOND
   1    1    2 1
   2    1    9 ar
   3    1   26 ar
   4    2    3 1
   5    2    6 2
   6    3    4 1
   7    3   15 1
   8    4    5 2
   9    4   18 1
  10    5    6 1
  11    5    7 1
  12    7    8 am
  13    7   10 2
  14    8   11 1
  15    8   29 1
  16    9   23 ar
  17    9   30 1
  18   11   12 1
  19   11   13 1
  20   11   31 1
  21   12   14 1
  22   12   19 1
  23   12   32 1
  24   13   20 2
  25   13   21 am
  26   14   33 1
  27   14   34 1
  28   14   35 1
  29   15   16 1
  30   15   36 1
  31   15   37 1
  32   16   17 1
  33   16   38 1
  34   16   39 1
  35   17   18 1
  36   18   40 1
  37   18   41 1
  38   19   42 1
  39   19   43 1
  40   19   44 1
  41   21   22 1
  42   21   45 1
  43   22   46 1
  44   22   47 1
  45   22   48 1
  46   23   24 ar
  47   23   28 1
  48   24   25 ar
  49   24   27 1
  50   25   26 ar
  51   25   49 1
  52   26   50 1

#	End of record

