#	Name: ASD01200270
#	Creating user name:	WinNT
#	Creation time:	15. 06. 2019 19:08

#	Modifying user name:	WinNT
#	Modification time:	15. 06. 2019 19:08

#	Program:	/corina/corina34_cracker 3.40 0067  02.08.2006

@<TRIPOS>MOLECULE
ASD01200270
  47   49    0    0    0
SMALL
NO_CHARGES


@<TRIPOS>ATOM
   1 C1             0.5622     1.2491     1.0507 C.2     
   2 C2             0.8074     0.0317     1.5717 C.2     
   3 N3             2.1369    -0.1395     1.6185 N.2     
   4 C4             2.7248     0.9256     1.1464 C.2     
   5 N5             1.7782     1.8166     0.7808 N.pl3   
   6 C6            -0.2301    -0.9638     2.0229 C.3     
   7 F7            -0.5758    -1.7949     0.9519 F       
   8 F8             0.2894    -1.7385     3.0656 F       
   9 F9            -1.3670    -0.2822     2.4701 F       
  10 C10            2.0095     3.1426     0.2024 C.3     
  11 C11            2.7672     3.0006    -1.0925 C.2     
  12 C12            2.8255     3.9903     1.1804 C.3     
  13 C13            2.0399     4.1660     2.4815 C.3     
  14 C14            2.9146     4.8684     3.5347 C.3     
  15 C15            2.1950     6.1834     3.8991 C.3     
  16 C16            0.7119     5.9168     3.5407 C.3     
  17 C17            0.8193     5.0786     2.2426 C.3     
  18 N18            2.9759     4.0794    -1.8729 N.am    
  19 O19            3.1890     1.9156    -1.4324 O.2     
  20 C20            3.6890     3.9516    -3.0587 C.ar    
  21 C21            3.8238     2.6965    -3.6468 C.ar    
  22 C22            4.5329     2.5761    -4.8239 C.ar    
  23 C23            5.0942     3.7331    -5.3853 C.ar    
  24 C24            4.9155     4.9563    -4.7358 C.ar    
  25 N25            4.2268     5.0269    -3.6167 N.ar    
  26 C26            5.8619     3.6584    -6.6423 C.2     
  27 O27            6.0122     2.5892    -7.1997 O.2     
  28 O28            6.3966     4.7757    -7.1726 O.3     
  29 H29           -0.4076     1.6908     0.8753 H       
  30 H30            3.7918     1.0706     1.0624 H       
  31 H31            1.0523     3.6279     0.0119 H       
  32 H32            3.7715     3.4917     1.3917 H       
  33 H33            3.0205     4.9676     0.7389 H       
  34 H34            1.7137     3.1950     2.8544 H       
  35 H35            3.0122     4.2387     4.4190 H       
  36 H36            3.8988     5.0841     3.1189 H       
  37 H37            2.2986     6.3925     4.9638 H       
  38 H38            2.5879     7.0100     3.3070 H       
  39 H39            0.2205     5.3467     4.3291 H       
  40 H40            0.1855     6.8527     3.3538 H       
  41 H41            0.9900     5.7268     1.3831 H       
  42 H42           -0.0812     4.4815     2.0985 H       
  43 H43            2.6283     4.9450    -1.6069 H       
  44 H44            3.3784     1.8271    -3.1862 H       
  45 H45            4.6533     1.6149    -5.3014 H       
  46 H46            5.3431     5.8536    -5.1581 H       
  47 H47            6.8913     4.6768    -7.9976 H       
@<TRIPOS>BOND
   1    1    2 2
   2    1    5 1
   3    1   29 1
   4    2    3 1
   5    2    6 1
   6    3    4 2
   7    4    5 1
   8    4   30 1
   9    5   10 1
  10    6    7 1
  11    6    8 1
  12    6    9 1
  13   10   11 1
  14   10   12 1
  15   10   31 1
  16   11   18 am
  17   11   19 2
  18   12   13 1
  19   12   32 1
  20   12   33 1
  21   13   14 1
  22   13   17 1
  23   13   34 1
  24   14   15 1
  25   14   35 1
  26   14   36 1
  27   15   16 1
  28   15   37 1
  29   15   38 1
  30   16   17 1
  31   16   39 1
  32   16   40 1
  33   17   41 1
  34   17   42 1
  35   18   20 1
  36   18   43 1
  37   20   21 ar
  38   20   25 ar
  39   21   22 ar
  40   21   44 1
  41   22   23 ar
  42   22   45 1
  43   23   24 ar
  44   23   26 1
  45   24   25 ar
  46   24   46 1
  47   26   27 2
  48   26   28 1
  49   28   47 1

#	End of record

