#	Name: ASD00170035
#	Creating user name:	WinNT
#	Creation time:	15. 06. 2019 18:31

#	Modifying user name:	WinNT
#	Modification time:	15. 06. 2019 18:31

#	Program:	/corina/corina34_cracker 3.40 0067  02.08.2006

@<TRIPOS>MOLECULE
ASD00170035
  39   42    0    0    0
SMALL
NO_CHARGES


@<TRIPOS>ATOM
   1 C1             0.5926     2.5493     1.2939 C.ar    
   2 C2             1.2012     2.2324     2.5329 C.ar    
   3 C3             0.5510     2.5768     3.7300 C.ar    
   4 C4            -0.6538     3.2094     3.7081 C.ar    
   5 C5            -1.2864     3.5390     2.5167 C.ar    
   6 C6            -0.7032     3.2245     1.2967 C.ar    
   7 C7             1.2369     2.2069     0.0989 C.ar    
   8 C8             2.4425     1.5724     0.1415 C.ar    
   9 C9             3.0438     1.2594     1.3583 C.ar    
  10 C10            2.4453     1.5782     2.5389 C.ar    
  11 C11           -1.3730     3.5741     0.0292 C.2     
  12 C12           -2.7193     4.1476     0.0470 C.2     
  13 O13           -0.8053     3.3853    -1.0320 O.2     
  14 C14           -2.9814     5.5665     0.2151 C.2     
  15 C15           -4.2879     5.8497     0.1968 C.2     
  16 S16           -5.2413     4.3921    -0.0260 S.3     
  17 C17           -3.8597     3.4002    -0.0993 C.2     
  18 N18           -3.8842     2.0313    -0.2750 N.pl3   
  19 C19           -1.8967     6.6169     0.3935 C.3     
  20 C20           -2.4959     7.9969     0.1137 C.3     
  21 C21           -3.7817     8.1617     0.9295 C.3     
  22 C22           -4.8621     7.2455     0.3483 C.3     
  23 H23            1.0117     2.3369     4.6769 H       
  24 H24           -1.1314     3.4617     4.6433 H       
  25 H25           -2.2424     4.0411     2.5393 H       
  26 H26            0.7810     2.4438    -0.8511 H       
  27 H27            2.9383     1.3085    -0.7810 H       
  28 H28            3.9994     0.7561     1.3654 H       
  29 H29            2.9233     1.3292     3.4747 H       
  30 H30           -4.7317     1.5598    -0.2936 H       
  31 H31           -3.0539     1.5408    -0.3800 H       
  32 H32           -1.5196     6.5828     1.4156 H       
  33 H33           -1.0825     6.4237    -0.3050 H       
  34 H34           -1.7816     8.7690     0.3997 H       
  35 H35           -2.7245     8.0862    -0.9483 H       
  36 H36           -3.5921     7.8895     1.9678 H       
  37 H37           -4.1160     9.1979     0.8780 H       
  38 H38           -5.1739     7.6208    -0.6264 H       
  39 H39           -5.7183     7.2169     1.0222 H       
@<TRIPOS>BOND
   1    1    2 ar
   2    1    7 ar
   3    1    6 ar
   4    2    3 ar
   5    2   10 ar
   6    3    4 ar
   7    3   23 1
   8    4    5 ar
   9    4   24 1
  10    5    6 ar
  11    5   25 1
  12    6   11 1
  13    7    8 ar
  14    7   26 1
  15    8    9 ar
  16    8   27 1
  17    9   10 ar
  18    9   28 1
  19   10   29 1
  20   11   12 1
  21   11   13 2
  22   12   14 1
  23   12   17 2
  24   14   15 2
  25   14   19 1
  26   15   16 1
  27   15   22 1
  28   16   17 1
  29   17   18 1
  30   18   30 1
  31   18   31 1
  32   19   20 1
  33   19   32 1
  34   19   33 1
  35   20   21 1
  36   20   34 1
  37   20   35 1
  38   21   22 1
  39   21   36 1
  40   21   37 1
  41   22   38 1
  42   22   39 1

#	End of record

