#	Name: ASD01903124
#	Creating user name:	WinNT
#	Creation time:	15. 06. 2019 19:54

#	Modifying user name:	WinNT
#	Modification time:	15. 06. 2019 19:54

#	Program:	/corina/corina34_cracker 3.40 0067  02.08.2006

@<TRIPOS>MOLECULE
ASD01903124
  35   37    0    0    0
SMALL
NO_CHARGES


@<TRIPOS>ATOM
   1 N1            -0.0426     1.3989    -0.0019 N.am    
   2 C2            -0.0171    -0.0043    -0.0067 C.ar    
   3 C3            -0.2417    -0.6991    -1.1887 C.ar    
   4 C4            -0.2166    -2.0804    -1.1931 C.ar    
   5 C5             0.0331    -2.7737    -0.0160 C.ar    
   6 C6             0.2576    -2.0781     1.1655 C.ar    
   7 C7             0.2381    -0.6979     1.1685 C.ar    
   8 C8             1.0478     2.1440    -0.2213 C.2     
   9 C9             0.6735     3.6082    -0.1463 C.3     
  10 C10           -0.8382     3.5798     0.1577 C.3     
  11 C11           -1.1603     2.1025     0.2169 C.2     
  12 O12            2.1591     1.7138    -0.4443 O.2     
  13 O13           -2.2556     1.6308     0.4351 O.2     
  14 Cl14          -0.5544     0.1683    -2.6596 Cl      
  15 N15            0.0582    -4.1727    -0.0198 N.am    
  16 C16            0.5500    -4.8350    -1.0857 C.2     
  17 O17            0.8931    -4.2213    -2.0770 O.2     
  18 C18            0.6723    -6.3106    -1.0488 C.ar    
  19 N19            0.2957    -6.9753     0.0373 N.ar    
  20 C20            0.3877    -8.2871     0.1102 C.ar    
  21 C21            0.8859    -9.0262    -0.9550 C.ar    
  22 C22            1.2896    -8.3702    -2.1061 C.ar    
  23 C23            1.1759    -6.9892    -2.1556 C.ar    
  24 F24           -0.0071    -8.9219     1.2356 F       
  25 H25           -0.3915    -2.6208    -2.1116 H       
  26 H26            0.4514    -2.6174     2.0809 H       
  27 H27            0.4126    -0.1576     2.0872 H       
  28 H28            1.2175     4.1025     0.6586 H       
  29 H29            0.8640     4.1021    -1.0991 H       
  30 H30           -1.0464     4.0599     1.1138 H       
  31 H31           -1.3998     4.0595    -0.6439 H       
  32 H32           -0.2784    -4.6660     0.7446 H       
  33 H33            0.9582   -10.1016    -0.8862 H       
  34 H34            1.6804    -8.9224    -2.9479 H       
  35 H35            1.4814    -6.4463    -3.0379 H       
@<TRIPOS>BOND
   1    1    2 1
   2    1    8 am
   3    1   11 am
   4    2    3 ar
   5    2    7 ar
   6    3    4 ar
   7    3   14 1
   8    4    5 ar
   9    4   25 1
  10    5    6 ar
  11    5   15 1
  12    6    7 ar
  13    6   26 1
  14    7   27 1
  15    8    9 1
  16    8   12 2
  17    9   10 1
  18    9   28 1
  19    9   29 1
  20   10   11 1
  21   10   30 1
  22   10   31 1
  23   11   13 2
  24   15   16 am
  25   15   32 1
  26   16   17 2
  27   16   18 1
  28   18   19 ar
  29   18   23 ar
  30   19   20 ar
  31   20   21 ar
  32   20   24 1
  33   21   22 ar
  34   21   33 1
  35   22   23 ar
  36   22   34 1
  37   23   35 1

#	End of record

