#	Name: ASD01870328
#	Creating user name:	WinNT
#	Creation time:	15. 06. 2019 19:39

#	Modifying user name:	WinNT
#	Modification time:	15. 06. 2019 19:39

#	Program:	/corina/corina34_cracker 3.40 0067  02.08.2006

@<TRIPOS>MOLECULE
ASD01870328
  55   57    0    0    0
SMALL
NO_CHARGES


@<TRIPOS>ATOM
   1 C1            -0.2660     1.8591    -0.3730 C.3     
   2 C2            -0.2140     0.3315    -0.2558 C.3     
   3 O3             1.0666     2.3766    -0.3761 O.3     
   4 C4             1.8604     1.9429    -1.4832 C.3     
   5 C5             2.0213     0.4196    -1.4228 C.3     
   6 N6             0.6847    -0.1838    -1.3008 N.am    
   7 C7             0.2954    -1.1794    -2.1217 C.2     
   8 N8            -0.8904    -1.7893    -1.9260 N.am    
   9 C9            -1.3648    -2.7925    -2.8824 C.3     
  10 C10           -2.7258    -3.3252    -2.4298 C.3     
  11 O11            1.0139    -1.5272    -3.0388 O.2     
  12 C12           -4.5088    -4.8661    -2.9857 C.3     
  13 C13           -5.1415    -5.6089    -4.1661 C.3     
  14 C14           -4.3245    -5.8290    -1.8091 C.3     
  15 C15           -3.5341    -7.0563    -2.2900 C.3     
  16 C16           -2.3093    -6.5488    -3.0853 C.3     
  17 C17           -2.8126    -6.4131    -4.5377 C.3     
  18 C18           -4.2943    -6.8515    -4.4834 C.3     
  19 N19           -4.3672    -7.7472    -3.3037 N.am    
  20 C20           -5.0328    -8.9128    -3.1819 C.2     
  21 O21           -4.9849    -9.5974    -2.0236 O.3     
  22 O22           -5.6761    -9.3457    -4.1174 O.2     
  23 C23           -5.7258   -10.8447    -1.9640 C.3     
  24 C24           -5.5535   -11.4747    -0.5804 C.3     
  25 N25           -3.2014    -4.3312    -3.3889 N.3     
  26 H26           -0.7663     2.1362    -1.3009 H       
  27 H27           -0.8145     2.2708     0.4742 H       
  28 H28            0.1664     0.0514     0.7265 H       
  29 H29           -1.2132    -0.0815    -0.3945 H       
  30 H30            1.3678     2.2203    -2.4151 H       
  31 H31            2.8417     2.4148    -1.4346 H       
  32 H32            2.5024     0.0648    -2.3343 H       
  33 H33            2.6268     0.1484    -0.5580 H       
  34 H34           -1.4298    -1.5641    -1.1519 H       
  35 H35           -1.4623    -2.3373    -3.8680 H       
  36 H36           -0.6507    -3.6145    -2.9309 H       
  37 H37           -2.6282    -3.7804    -1.4442 H       
  38 H38           -3.4399    -2.5032    -2.3813 H       
  39 H39           -5.1586    -4.0447    -2.6837 H       
  40 H40           -6.1544    -5.9148    -3.9044 H       
  41 H41           -5.1694    -4.9540    -5.0369 H       
  42 H42           -3.7742    -5.3298    -1.0116 H       
  43 H43           -5.3001    -6.1449    -1.4396 H       
  44 H44           -3.2477    -7.7087    -1.4650 H       
  45 H45           -1.9838    -5.5808    -2.7043 H       
  46 H46           -1.4955    -7.2719    -3.0316 H       
  47 H47           -2.7349    -5.3783    -4.8713 H       
  48 H48           -2.2465    -7.0695    -5.1985 H       
  49 H49           -4.6128    -7.3409    -5.4038 H       
  50 H50           -6.7827   -10.6486    -2.1448 H       
  51 H51           -5.3480   -11.5284    -2.7242 H       
  52 H52           -4.4966   -11.6709    -0.3996 H       
  53 H53           -5.9313   -10.7910     0.1798 H       
  54 H54           -6.1097   -12.4111    -0.5357 H       
  55 H55           -3.2387    -3.9512    -4.3228 H       
@<TRIPOS>BOND
   1    1    2 1
   2    1    3 1
   3    1   26 1
   4    1   27 1
   5    2    6 1
   6    2   28 1
   7    2   29 1
   8    3    4 1
   9    4    5 1
  10    4   30 1
  11    4   31 1
  12    5    6 1
  13    5   32 1
  14    5   33 1
  15    6    7 am
  16    7    8 am
  17    7   11 2
  18    8    9 1
  19    8   34 1
  20    9   10 1
  21    9   35 1
  22    9   36 1
  23   10   25 1
  24   10   37 1
  25   10   38 1
  26   12   13 1
  27   12   14 1
  28   12   25 1
  29   12   39 1
  30   13   18 1
  31   13   40 1
  32   13   41 1
  33   14   15 1
  34   14   42 1
  35   14   43 1
  36   15   16 1
  37   15   19 1
  38   15   44 1
  39   16   17 1
  40   16   45 1
  41   16   46 1
  42   17   18 1
  43   17   47 1
  44   17   48 1
  45   18   19 1
  46   18   49 1
  47   19   20 am
  48   20   21 1
  49   20   22 2
  50   21   23 1
  51   23   24 1
  52   23   50 1
  53   23   51 1
  54   24   52 1
  55   24   53 1
  56   24   54 1
  57   25   55 1

#	End of record

