#	Name: ASD08150672
#	Creating user name:	WinNT
#	Creation time:	15. 06. 2019 21:16

#	Modifying user name:	WinNT
#	Modification time:	15. 06. 2019 21:16

#	Program:	/corina/corina34_cracker 3.40 0067  02.08.2006

@<TRIPOS>MOLECULE
ASD08150672
  61   66    0    0    0
SMALL
NO_CHARGES


@<TRIPOS>ATOM
   1 N1             0.1120     1.4089     2.1992 N.am    
   2 C2             0.1187     0.0781     2.4083 C.2     
   3 C3             1.3308    -0.6389     2.4685 C.2     
   4 C4             2.5149     0.0071     2.3155 C.2     
   5 C5             2.5115     1.4070     2.0948 C.ar    
   6 C6             3.7113     2.1252     1.9293 C.ar    
   7 N7             3.7051     3.4167     1.7259 N.ar    
   8 C8             2.5691     4.1279     1.6628 C.ar    
   9 C9             1.3150     3.4876     1.8180 C.ar    
  10 C10            1.2871     2.0908     2.0405 C.ar    
  11 C11            0.1370     4.2379     1.7511 C.ar    
  12 C12            0.2098     5.6041     1.5330 C.ar    
  13 C13            1.4546     6.2308     1.3804 C.ar    
  14 C14            2.6090     5.5145     1.4429 C.ar    
  15 O15           -0.9379    -0.5142     2.5478 O.2     
  16 C16           -1.0349     6.4074     1.4601 C.ar    
  17 C17           -1.1065     2.0979     2.1382 C.ar    
  18 C18           -1.8351     2.1169     0.9556 C.ar    
  19 C19           -3.0354     2.7951     0.8954 C.ar    
  20 C20           -3.5152     3.4590     2.0178 C.ar    
  21 C21           -2.7866     3.4399     3.2001 C.ar    
  22 C22           -1.5884     2.7569     3.2615 C.ar    
  23 N23           -4.7310     4.1464     1.9568 N.3     
  24 C24           -1.0676     7.7124     1.9649 C.ar    
  25 C25           -5.8199     3.3424     2.5290 C.3     
  26 C26           -7.1144     4.1588     2.5161 C.3     
  27 N27           -7.4261     4.5563     1.1361 N.3     
  28 C28           -6.3371     5.3603     0.5639 C.3     
  29 C29           -5.0427     4.5439     0.5768 C.3     
  30 C30           -2.2488     8.4221     1.8744 C.ar    
  31 C31           -3.3596     7.8213     1.2889 C.ar    
  32 N32           -3.2949     6.5838     0.8208 N.ar    
  33 C33           -2.1852     5.8757     0.8834 C.ar    
  34 N34           -4.5517     8.5286     1.1946 N.pl3   
  35 C35           -3.3067     4.1598     4.4176 C.3     
  36 F36           -2.3418     4.1216     5.4298 F       
  37 F37           -3.5852     5.4908     4.0888 F       
  38 F38           -4.4762     3.5353     4.8644 F       
  39 H39            1.3175    -1.7055     2.6373 H       
  40 H40            3.4462    -0.5380     2.3615 H       
  41 H41            4.6538     1.5996     1.9714 H       
  42 H42           -0.8224     3.7559     1.8682 H       
  43 H43            1.4973     7.2965     1.2108 H       
  44 H44            3.5592     6.0135     1.3232 H       
  45 H45           -1.4619     1.6012     0.0831 H       
  46 H46           -3.6017     2.8102    -0.0241 H       
  47 H47           -1.0240     2.7383     4.1821 H       
  48 H48           -0.1904     8.1536     2.4145 H       
  49 H49           -5.9545     2.4379     1.9358 H       
  50 H50           -5.5713     3.0711     3.5550 H       
  51 H51           -7.9297     3.5542     2.9133 H       
  52 H52           -6.9886     5.0497     3.1315 H       
  53 H53           -7.6196     3.7492     0.5623 H       
  54 H54           -6.5858     5.6316    -0.4621 H       
  55 H55           -6.2025     6.2648     1.1571 H       
  56 H56           -4.2274     5.1486     0.1796 H       
  57 H57           -5.1684     3.6531    -0.0386 H       
  58 H58           -2.3101     9.4314     2.2539 H       
  59 H59           -2.1703     4.8697     0.4909 H       
  60 H60           -4.6060     9.4351     1.5357 H       
  61 H61           -5.3295     8.1160     0.7878 H       
@<TRIPOS>BOND
   1    1    2 am
   2    1   10 1
   3    1   17 1
   4    2    3 1
   5    2   15 2
   6    3    4 2
   7    3   39 1
   8    4    5 1
   9    4   40 1
  10    5    6 ar
  11    5   10 ar
  12    6    7 ar
  13    6   41 1
  14    7    8 ar
  15    8    9 ar
  16    8   14 ar
  17    9   10 ar
  18    9   11 ar
  19   11   12 ar
  20   11   42 1
  21   12   13 ar
  22   12   16 1
  23   13   14 ar
  24   13   43 1
  25   14   44 1
  26   16   24 ar
  27   16   33 ar
  28   17   18 ar
  29   17   22 ar
  30   18   19 ar
  31   18   45 1
  32   19   20 ar
  33   19   46 1
  34   20   21 ar
  35   20   23 1
  36   21   22 ar
  37   21   35 1
  38   22   47 1
  39   23   25 1
  40   23   29 1
  41   24   30 ar
  42   24   48 1
  43   25   26 1
  44   25   49 1
  45   25   50 1
  46   26   27 1
  47   26   51 1
  48   26   52 1
  49   27   28 1
  50   27   53 1
  51   28   29 1
  52   28   54 1
  53   28   55 1
  54   29   56 1
  55   29   57 1
  56   30   31 ar
  57   30   58 1
  58   31   32 ar
  59   31   34 1
  60   32   33 ar
  61   33   59 1
  62   34   60 1
  63   34   61 1
  64   35   36 1
  65   35   37 1
  66   35   38 1

#	End of record

