#	Name: ASD04590277
#	Creating user name:	WinNT
#	Creation time:	15. 06. 2019 20:50

#	Modifying user name:	WinNT
#	Modification time:	15. 06. 2019 20:50

#	Program:	/corina/corina34_cracker 3.40 0067  02.08.2006

@<TRIPOS>MOLECULE
ASD04590277
  40   43    0    0    0
SMALL
NO_CHARGES


@<TRIPOS>ATOM
   1 C1            -0.0167     1.3832     0.0096 C.ar    
   2 C2             0.0021    -0.0041     0.0020 C.ar    
   3 C3             1.1969    -0.6870    -0.0126 C.ar    
   4 C4             2.4020     0.0223    -0.0203 C.ar    
   5 C5             2.3769     1.4283    -0.0129 C.ar    
   6 C6             1.1624     2.0986     0.0022 C.ar    
   7 N7             3.7040    -0.3552    -0.0350 N.2     
   8 C8             4.4709     0.7083    -0.0373 C.2     
   9 N9             3.6969     1.8375    -0.0239 N.pl3   
  10 C10            5.9482     0.6906    -0.0516 C.2     
  11 C11            6.7657    -0.4631    -0.0655 C.2     
  12 C12            8.0579    -0.0540    -0.0757 C.2     
  13 N13            8.0646     1.3050    -0.0686 N.pl3   
  14 N14            6.7360     1.7480    -0.0593 N.2     
  15 N15            6.3188    -1.7944    -0.0682 N.am    
  16 C16            7.2108    -2.8047    -0.0820 C.2     
  17 C17            6.7418    -4.2018    -0.0849 C.ar    
  18 O18            8.4028    -2.5633    -0.0922 O.2     
  19 C19            6.0593    -6.1764    -1.2889 C.ar    
  20 C20            5.8586    -6.8330    -0.0897 C.ar    
  21 C21            6.0895    -6.1855     1.1112 C.ar    
  22 C22            6.5293    -4.8757     1.1229 C.ar    
  23 F23            6.7540    -4.2473     2.2976 F       
  24 C24            6.5001    -4.8626    -1.2979 C.ar    
  25 O25            6.6965    -4.2182    -2.4755 O.3     
  26 C26            6.4297    -4.9548    -3.6705 C.3     
  27 H27           -0.9614     1.9066     0.0169 H       
  28 H28           -0.9283    -0.5525     0.0079 H       
  29 H29            1.2037    -1.7669    -0.0177 H       
  30 H30            1.1403     3.1784     0.0075 H       
  31 H31            4.0155     2.7537    -0.0230 H       
  32 H32            8.9276    -0.6942    -0.0871 H       
  33 H33            8.8529     1.8702    -0.0729 H       
  34 H34            5.3681    -1.9869    -0.0601 H       
  35 H35            5.8764    -6.6897    -2.2213 H       
  36 H36            5.5149    -7.8569    -0.0897 H       
  37 H37            5.9293    -6.7074     2.0431 H       
  38 H38            7.0732    -5.8339    -3.7068 H       
  39 H39            5.3857    -5.2682    -3.6788 H       
  40 H40            6.6267    -4.3243    -4.5376 H       
@<TRIPOS>BOND
   1    1    2 ar
   2    1    6 ar
   3    1   27 1
   4    2    3 ar
   5    2   28 1
   6    3    4 ar
   7    3   29 1
   8    4    5 ar
   9    4    7 1
  10    5    6 ar
  11    5    9 1
  12    6   30 1
  13    7    8 2
  14    8    9 1
  15    8   10 1
  16    9   31 1
  17   10   11 1
  18   10   14 2
  19   11   12 2
  20   11   15 1
  21   12   13 1
  22   12   32 1
  23   13   14 1
  24   13   33 1
  25   15   16 am
  26   15   34 1
  27   16   17 1
  28   16   18 2
  29   17   22 ar
  30   17   24 ar
  31   19   20 ar
  32   19   24 ar
  33   19   35 1
  34   20   21 ar
  35   20   36 1
  36   21   22 ar
  37   21   37 1
  38   22   23 1
  39   24   25 1
  40   25   26 1
  41   26   38 1
  42   26   39 1
  43   26   40 1

#	End of record

