#	Name: ASD03090415
#	Creating user name:	WinNT
#	Creation time:	15. 06. 2019 20:28

#	Modifying user name:	WinNT
#	Modification time:	15. 06. 2019 20:28

#	Program:	/corina/corina34_cracker 3.40 0067  02.08.2006

@<TRIPOS>MOLECULE
ASD03090415
  43   46    0    0    0
SMALL
NO_CHARGES


@<TRIPOS>ATOM
   1 C1            -0.0088     1.5048     0.0105 C.2     
   2 C2             0.0130    -0.0021     0.0063 C.3     
   3 O3             1.0327     2.1264     0.0096 O.2     
   4 N4            -1.1857     2.1617     0.0096 N.am    
   5 C5            -2.1723     4.3023    -0.5389 C.ar    
   6 C6            -1.2087     3.5580     0.1257 C.ar    
   7 C7            -0.2643     4.2165     0.9105 C.ar    
   8 C8            -0.3257     5.5961     0.9962 C.ar    
   9 C9            -1.3194     6.2742     0.3022 C.ar    
  10 N10           -2.2000     5.6168    -0.4338 N.ar    
  11 O11           -1.3879     7.6276     0.3805 O.3     
  12 C12           -2.3064     8.2656    -0.3915 C.ar    
  13 C13           -3.6494     8.2324    -0.0445 C.ar    
  14 C14           -4.5810     8.8817    -0.8310 C.ar    
  15 C15           -4.1762     9.5645    -1.9631 C.ar    
  16 C16           -2.8385     9.5989    -2.3114 C.ar    
  17 C17           -1.9021     8.9563    -1.5250 C.ar    
  18 N18            5.3437    -1.8036     0.2613 N.pl3   
  19 C19            5.5069    -1.8611     1.6186 C.2     
  20 C20            4.3756    -1.4792     2.2321 C.2     
  21 C21            3.4089    -1.1504     1.1818 C.ar    
  22 C22            2.0860    -0.7036     1.1856 C.ar    
  23 C23            1.4409    -0.4838     0.0014 C.ar    
  24 C24            2.0902    -0.7010    -1.2063 C.ar    
  25 C25            3.3949    -1.1421    -1.2331 C.ar    
  26 C26            4.0711    -1.3725    -0.0393 C.ar    
  27 H27           -0.4933    -0.3752     0.8966 H       
  28 H28           -0.4978    -0.3704    -0.8834 H       
  29 H29           -2.0167     1.6680    -0.0713 H       
  30 H30           -2.9053     3.8001    -1.1529 H       
  31 H31            0.4974     3.6632     1.4396 H       
  32 H32            0.3901     6.1390     1.5956 H       
  33 H33           -3.9662     7.6989     0.8395 H       
  34 H34           -5.6266     8.8558    -0.5615 H       
  35 H35           -4.9062    10.0716    -2.5767 H       
  36 H36           -2.5250    10.1323    -3.1966 H       
  37 H37           -0.8568     8.9875    -1.7948 H       
  38 H38            6.0245    -2.0291    -0.3918 H       
  39 H39            6.4117    -2.1684     2.1218 H       
  40 H40            4.2096    -1.4248     3.2979 H       
  41 H41            1.5742    -0.5333     2.1213 H       
  42 H42            1.5670    -0.5228    -2.1341 H       
  43 H43            3.8912    -1.3085    -2.1778 H       
@<TRIPOS>BOND
   1    1    2 1
   2    1    3 2
   3    1    4 am
   4    2   23 1
   5    2   27 1
   6    2   28 1
   7    4    6 1
   8    4   29 1
   9    5    6 ar
  10    5   10 ar
  11    5   30 1
  12    6    7 ar
  13    7    8 ar
  14    7   31 1
  15    8    9 ar
  16    8   32 1
  17    9   10 ar
  18    9   11 1
  19   11   12 1
  20   12   13 ar
  21   12   17 ar
  22   13   14 ar
  23   13   33 1
  24   14   15 ar
  25   14   34 1
  26   15   16 ar
  27   15   35 1
  28   16   17 ar
  29   16   36 1
  30   17   37 1
  31   18   19 1
  32   18   26 1
  33   18   38 1
  34   19   20 2
  35   19   39 1
  36   20   21 1
  37   20   40 1
  38   21   22 ar
  39   21   26 ar
  40   22   23 ar
  41   22   41 1
  42   23   24 ar
  43   24   25 ar
  44   24   42 1
  45   25   26 ar
  46   25   43 1

#	End of record

