#	Name: ASD08070078
#	Creating user name:	WinNT
#	Creation time:	15. 06. 2019 21:14

#	Modifying user name:	WinNT
#	Modification time:	15. 06. 2019 21:14

#	Program:	/corina/corina34_cracker 3.40 0067  02.08.2006

@<TRIPOS>MOLECULE
ASD08070078
  41   41    0    0    0
SMALL
NO_CHARGES


@<TRIPOS>ATOM
   1 C1            -0.0165     1.3667     0.0096 C.ar    
   2 C2             0.0021    -0.0041     0.0020 C.ar    
   3 C3             1.1794     2.0809     0.0020 C.ar    
   4 C4             2.3974     1.4050    -0.0138 C.ar    
   5 C5             2.4221     0.0343    -0.0219 C.ar    
   6 C6             1.2232    -0.6853    -0.0133 C.ar    
   7 C7             1.2465    -2.1599    -0.0215 C.2     
   8 O8             2.3090    -2.7511    -0.0357 O.2     
   9 C9             0.2322    -4.8171    -1.4625 C.3     
  10 C10            0.1133    -4.3170    -0.0214 C.3     
  11 N11            0.0901    -2.8522    -0.0133 N.am    
  12 C12           -1.1794    -4.8509     0.5988 C.3     
  13 C13           -1.2380    -4.4552     2.0756 C.3     
  14 S14            1.1516     3.8426     0.0118 S.3     
  15 C15            1.5816    -4.3878    -2.0417 C.3     
  16 C16            1.7005    -4.8880    -3.4827 C.3     
  17 C17            2.9124     4.2787    -0.0027 C.3     
  18 C18           -2.5307    -4.9892     2.6957 C.3     
  19 H19           -0.9593     1.8934     0.0169 H       
  20 H20           -0.9255    -0.5573     0.0083 H       
  21 H21            3.3231     1.9613    -0.0200 H       
  22 H22            3.3667    -0.4892    -0.0345 H       
  23 H23            0.1601    -5.9047    -1.4767 H       
  24 H24           -0.5725    -4.3918    -2.0622 H       
  25 H25            0.9668    -4.6701     0.5573 H       
  26 H26           -0.7574    -2.3806    -0.0020 H       
  27 H27           -2.0360    -4.4269     0.0748 H       
  28 H28           -1.2021    -5.9372     0.5125 H       
  29 H29           -0.3814    -4.8793     2.5996 H       
  30 H30           -1.2153    -3.3689     2.1618 H       
  31 H31            1.6537    -3.3002    -2.0274 H       
  32 H32            2.3863    -4.8131    -1.4419 H       
  33 H33            1.6285    -5.9755    -3.4969 H       
  34 H34            0.8958    -4.4627    -4.0825 H       
  35 H35            2.6619    -4.5821    -3.8953 H       
  36 H36            3.3970     3.8624     0.8804 H       
  37 H37            3.3800     3.8721    -0.8994 H       
  38 H38            3.0181     5.3635     0.0021 H       
  39 H39           -3.3873    -4.5651     2.1717 H       
  40 H40           -2.5534    -6.0755     2.6095 H       
  41 H41           -2.5724    -4.7073     3.7478 H       
@<TRIPOS>BOND
   1    1    2 ar
   2    1    3 ar
   3    1   19 1
   4    2    6 ar
   5    2   20 1
   6    3    4 ar
   7    3   14 1
   8    4    5 ar
   9    4   21 1
  10    5    6 ar
  11    5   22 1
  12    6    7 1
  13    7    8 2
  14    7   11 am
  15    9   10 1
  16    9   15 1
  17    9   23 1
  18    9   24 1
  19   10   12 1
  20   10   11 1
  21   10   25 1
  22   11   26 1
  23   12   13 1
  24   12   27 1
  25   12   28 1
  26   13   18 1
  27   13   29 1
  28   13   30 1
  29   14   17 1
  30   15   16 1
  31   15   31 1
  32   15   32 1
  33   16   33 1
  34   16   34 1
  35   16   35 1
  36   17   36 1
  37   17   37 1
  38   17   38 1
  39   18   39 1
  40   18   40 1
  41   18   41 1

#	End of record

