#	Name: ASD08070150
#	Creating user name:	WinNT
#	Creation time:	15. 06. 2019 21:14

#	Modifying user name:	WinNT
#	Modification time:	15. 06. 2019 21:14

#	Program:	/corina/corina34_cracker 3.40 0067  02.08.2006

@<TRIPOS>MOLECULE
ASD08070150
  36   36    0    0    0
SMALL
NO_CHARGES


@<TRIPOS>ATOM
   1 S1            -0.0211     1.7035     0.0114 S.3     
   2 C2             0.0021    -0.0041     0.0020 C.2     
   3 N3             1.2126    -0.4394    -0.0119 N.2     
   4 C4             2.1659     0.4959    -0.0160 C.2     
   5 C5             1.6873     1.7604    -0.0046 C.2     
   6 C6             3.6042     0.1796    -0.0314 C.2     
   7 O7             4.4244     1.0777    -0.0339 O.2     
   8 N8             4.0115    -1.1051    -0.0427 N.am    
   9 C9            -1.2248    -0.8792     0.0098 C.3     
  10 C10            6.4222     0.0038     3.3827 C.3     
  11 C11            5.8836    -0.0011     1.9506 C.3     
  12 C12            5.9809    -1.4149     1.3740 C.3     
  13 C13            5.4422    -1.4198    -0.0580 C.3     
  14 C14            5.6536    -2.8026    -0.6777 C.3     
  15 C15            5.2299    -2.7730    -2.1476 C.3     
  16 C16            5.4413    -4.1559    -2.7672 C.3     
  17 H17            2.2862     2.6591    -0.0055 H       
  18 H18            3.3573    -1.8213    -0.0406 H       
  19 H19           -2.1173    -0.2535     0.0218 H       
  20 H20           -1.2310    -1.5040    -0.8833 H       
  21 H21           -1.2134    -1.5129     0.8966 H       
  22 H22            5.8335    -0.6795     3.9947 H       
  23 H23            7.4641    -0.3166     3.3801 H       
  24 H24            6.3529     1.0111     3.7935 H       
  25 H25            4.8417     0.3194     1.9532 H       
  26 H26            6.4723     0.6822     1.3386 H       
  27 H27            7.0227    -1.7353     1.3714 H       
  28 H28            5.3921    -2.0982     1.9860 H       
  29 H29            5.9723    -0.6723    -0.6482 H       
  30 H30            6.7069    -3.0746    -0.6086 H       
  31 H31            5.0528    -3.5369    -0.1411 H       
  32 H32            4.1766    -2.5011    -2.2167 H       
  33 H33            5.8307    -2.0387    -2.6842 H       
  34 H34            6.4945    -4.4278    -2.6981 H       
  35 H35            4.8405    -4.8902    -2.2306 H       
  36 H36            5.1394    -4.1348    -3.8144 H       
@<TRIPOS>BOND
   1    1    2 1
   2    1    5 1
   3    2    3 2
   4    2    9 1
   5    3    4 1
   6    4    5 2
   7    4    6 1
   8    5   17 1
   9    6    7 2
  10    6    8 am
  11    8   13 1
  12    8   18 1
  13    9   19 1
  14    9   20 1
  15    9   21 1
  16   10   11 1
  17   10   22 1
  18   10   23 1
  19   10   24 1
  20   11   12 1
  21   11   25 1
  22   11   26 1
  23   12   13 1
  24   12   27 1
  25   12   28 1
  26   13   14 1
  27   13   29 1
  28   14   15 1
  29   14   30 1
  30   14   31 1
  31   15   16 1
  32   15   32 1
  33   15   33 1
  34   16   34 1
  35   16   35 1
  36   16   36 1

#	End of record

