#	Name: ASD01120301
#	Creating user name:	WinNT
#	Creation time:	15. 06. 2019 18:59

#	Modifying user name:	WinNT
#	Modification time:	15. 06. 2019 18:59

#	Program:	/corina/corina34_cracker 3.40 0067  02.08.2006

@<TRIPOS>MOLECULE
ASD01120301
  45   47    0    0    0
SMALL
NO_CHARGES


@<TRIPOS>ATOM
   1 C1             0.0966     2.0950    -0.1618 C.3     
   2 O2            -0.1809     0.6942    -0.1109 O.3     
   3 C3             0.3271    -0.0727    -1.1125 C.ar    
   4 C4             1.0761     0.5122    -2.1215 C.ar    
   5 C5             1.5953    -0.2708    -3.1441 C.ar    
   6 C6             1.3644    -1.6400    -3.1566 C.ar    
   7 C7             0.6156    -2.2261    -2.1482 C.ar    
   8 C8             0.1001    -1.4438    -1.1216 C.ar    
   9 O9            -0.6357    -2.0189    -0.1306 O.3     
  10 C10            0.0748    -2.4830     1.0191 C.3     
  11 O11            0.3892    -3.5669    -2.1608 O.3     
  12 C12            0.9532    -4.3099    -3.2433 C.3     
  13 N13            2.3508     0.3202    -4.1625 N.pl3   
  14 C14            3.2987     1.2912    -3.8519 C.ar    
  15 C15            3.6088     1.5644    -2.5320 C.ar    
  16 C16            4.5530     2.5309    -2.2190 C.ar    
  17 C17            5.1975     3.2343    -3.2132 C.ar    
  18 C18            4.9054     2.9810    -4.5504 C.ar    
  19 C19            3.9526     1.9978    -4.8795 C.ar    
  20 C20            3.8648     1.9602    -6.2890 C.2     
  21 C21            4.7316     2.8852    -6.7837 C.2     
  22 N22            5.3748     3.5100    -5.7299 N.pl3   
  23 C23            4.9529     3.1700    -8.2056 C.2     
  24 O24            4.3340     2.5547    -9.0524 O.2     
  25 O25            5.8428     4.1143    -8.5737 O.3     
  26 N26            6.2024     4.2621    -2.8584 N.pl3   
  27 O27            6.4587     4.4850    -1.6887 O.2     
  28 O28            6.7729     4.8846    -3.7361 O.2     
  29 H29            1.1748     2.2531    -0.1337 H       
  30 H30           -0.3078     2.5123    -1.0840 H       
  31 H31           -0.3653     2.5883     0.6934 H       
  32 H32            1.2557     1.5771    -2.1126 H       
  33 H33            1.7682    -2.2483    -3.9523 H       
  34 H34            0.8007    -3.2381     0.7174 H       
  35 H35            0.5939    -1.6467     1.4875 H       
  36 H36           -0.6281    -2.9181     1.7295 H       
  37 H37            0.5547    -3.9368    -4.1867 H       
  38 H38            2.0372    -4.1960    -3.2364 H       
  39 H39            0.6980    -5.3638    -3.1326 H       
  40 H40            2.2142     0.0534    -5.0850 H       
  41 H41            3.1126     1.0224    -1.7405 H       
  42 H42            4.7855     2.7346    -1.1842 H       
  43 H43            3.2245     1.3129    -6.8699 H       
  44 H44            6.0420     4.2095    -5.8097 H       
  45 H45            5.9543     4.2665    -9.5221 H       
@<TRIPOS>BOND
   1    1    2 1
   2    1   29 1
   3    1   30 1
   4    1   31 1
   5    2    3 1
   6    3    4 ar
   7    3    8 ar
   8    4    5 ar
   9    4   32 1
  10    5    6 ar
  11    5   13 1
  12    6    7 ar
  13    6   33 1
  14    7    8 ar
  15    7   11 1
  16    8    9 1
  17    9   10 1
  18   10   34 1
  19   10   35 1
  20   10   36 1
  21   11   12 1
  22   12   37 1
  23   12   38 1
  24   12   39 1
  25   13   14 1
  26   13   40 1
  27   14   15 ar
  28   14   19 ar
  29   15   16 ar
  30   15   41 1
  31   16   17 ar
  32   16   42 1
  33   17   18 ar
  34   17   26 1
  35   18   19 ar
  36   18   22 1
  37   19   20 1
  38   20   21 2
  39   20   43 1
  40   21   22 1
  41   21   23 1
  42   22   44 1
  43   23   24 2
  44   23   25 1
  45   25   45 1
  46   26   27 2
  47   26   28 2

#	End of record

