#	Name: ASD01913699
#	Creating user name:	WinNT
#	Creation time:	15. 06. 2019 20:02

#	Modifying user name:	WinNT
#	Modification time:	15. 06. 2019 20:02

#	Program:	/corina/corina34_cracker 3.40 0067  02.08.2006

@<TRIPOS>MOLECULE
ASD01913699
  39   41    0    0    0
SMALL
NO_CHARGES


@<TRIPOS>ATOM
   1 C1            -0.0184     1.5028     0.0103 C.ar    
   2 C2             0.0021    -0.0041     0.0020 C.3     
   3 O3             0.0214    -0.4876     1.3466 O.3     
   4 C4             0.0413    -1.8317     1.5167 C.ar    
   5 N5             0.0420    -2.6238     0.4557 N.ar    
   6 C6             0.0610    -3.9354     0.5691 C.ar    
   7 C7             0.0807    -4.5400     1.8264 C.ar    
   8 C8             0.0805    -3.7291     2.9711 C.ar    
   9 C9             0.0664    -2.3598     2.8041 C.ar    
  10 C10            0.1009    -6.0108     1.9502 C.2     
  11 N11            0.1004    -6.7803     0.8437 N.am    
  12 O12            0.1179    -6.5281     3.0503 O.2     
  13 C13            0.1205    -8.2400     0.9665 C.3     
  14 C14            1.1697     2.2097     0.0028 C.ar    
  15 C15            1.1521     3.5915     0.0099 C.ar    
  16 C16           -0.0559     4.2680     0.0246 C.ar    
  17 C17           -1.2451     3.5589     0.0321 C.ar    
  18 C18           -1.2252     2.1771     0.0197 C.ar    
  19 F19           -0.0742     5.6188     0.0320 F       
  20 C20           -0.4771    -8.9687    -0.2487 C.3     
  21 C21            0.6622    -9.9904    -0.0971 C.3     
  22 C22            1.4690    -8.8719     0.5833 C.3     
  23 H23           -0.8878    -0.3767    -0.5053 H       
  24 H24            0.8920    -0.3525    -0.5222 H       
  25 H25            0.0609    -4.5492    -0.3196 H       
  26 H26            0.0954    -4.1660     3.9587 H       
  27 H27            0.0662    -1.7049     3.6629 H       
  28 H28            0.0868    -6.3676    -0.0341 H       
  29 H29           -0.2714    -8.5898     1.9216 H       
  30 H30            2.1118     1.6818    -0.0084 H       
  31 H31            2.0804     4.1436     0.0043 H       
  32 H32           -2.1880     4.0855     0.0436 H       
  33 H33           -2.1526     1.6238     0.0256 H       
  34 H34           -1.4664    -9.3873    -0.0637 H       
  35 H35           -0.4263    -8.3919    -1.1721 H       
  36 H36            0.4195   -10.8198     0.5672 H       
  37 H37            1.0847   -10.3175    -1.0472 H       
  38 H38            2.0519    -8.2686    -0.1128 H       
  39 H39            2.0509    -9.2123     1.4398 H       
@<TRIPOS>BOND
   1    1    2 1
   2    1   14 ar
   3    1   18 ar
   4    2    3 1
   5    2   23 1
   6    2   24 1
   7    3    4 1
   8    4    5 ar
   9    4    9 ar
  10    5    6 ar
  11    6    7 ar
  12    6   25 1
  13    7    8 ar
  14    7   10 1
  15    8    9 ar
  16    8   26 1
  17    9   27 1
  18   10   11 am
  19   10   12 2
  20   11   13 1
  21   11   28 1
  22   13   20 1
  23   13   22 1
  24   13   29 1
  25   14   15 ar
  26   14   30 1
  27   15   16 ar
  28   15   31 1
  29   16   17 ar
  30   16   19 1
  31   17   18 ar
  32   17   32 1
  33   18   33 1
  34   20   21 1
  35   20   34 1
  36   20   35 1
  37   21   22 1
  38   21   36 1
  39   21   37 1
  40   22   38 1
  41   22   39 1

#	End of record

