#	Name: ASD01730007
#	Creating user name:	WinNT
#	Creation time:	15. 06. 2019 19:23

#	Modifying user name:	WinNT
#	Modification time:	15. 06. 2019 19:23

#	Program:	/corina/corina34_cracker 3.40 0067  02.08.2006

@<TRIPOS>MOLECULE
ASD01730007
  38   39    0    0    0
SMALL
NO_CHARGES


@<TRIPOS>ATOM
   1 C1             0.1991     1.7244     0.0871 C.2     
   2 C2             0.4658     0.2437     0.1720 C.3     
   3 N3             1.1966     2.5675     0.0638 N.2     
   4 N4            -1.0834     2.1840     0.0289 N.pl3   
   5 S5             3.8919     3.1450     0.3359 S.3     
   6 C6             2.4715     2.1167     0.2106 C.2     
   7 N7             2.8113     0.8709     0.2785 N.2     
   8 C8             4.1187     0.5829     0.4252 C.ar    
   9 C9             4.9249     1.7250     0.4822 C.ar    
  10 C10            4.7370    -0.6822     0.5241 C.ar    
  11 C11            6.0967    -0.7829     0.6728 C.ar    
  12 C12            6.8888     0.3597     0.7287 C.ar    
  13 C13            6.3043     1.6079     0.6319 C.ar    
  14 O14            8.2357     0.2481     0.8777 O.3     
  15 C15            8.7708    -1.0737     0.9704 C.3     
  16 F16            8.4612    -1.7849    -0.1939 F       
  17 F17           10.1602    -1.0049     1.1193 F       
  18 F18            8.2150    -1.7253     2.0766 F       
  19 C19           -1.3482     3.6242     0.0730 C.3     
  20 C20           -1.3536     4.1856    -1.3502 C.3     
  21 C21           -2.1965     1.2375    -0.0778 C.3     
  22 C22           -2.7411     0.9311     1.3188 C.3     
  23 H23            1.0881     0.0359     1.0425 H       
  24 H24           -0.4795    -0.2910     0.2652 H       
  25 H25            0.9817    -0.0849    -0.7302 H       
  26 H26            4.1346    -1.5777     0.4826 H       
  27 H27            6.5565    -1.7573     0.7476 H       
  28 H28            6.9187     2.4951     0.6749 H       
  29 H29           -2.3185     3.8011     0.5371 H       
  30 H30           -0.5711     4.1188     0.6558 H       
  31 H31           -0.3833     4.0086    -1.8143 H       
  32 H32           -2.1307     3.6910    -1.9330 H       
  33 H33           -1.5506     5.2571    -1.3174 H       
  34 H34           -2.9871     1.6736    -0.6884 H       
  35 H35           -1.8462     0.3153    -0.5415 H       
  36 H36           -3.0914     1.8532     1.7826 H       
  37 H37           -3.5692     0.2269     1.2395 H       
  38 H38           -1.9505     0.4949     1.9294 H       
@<TRIPOS>BOND
   1    1    2 1
   2    1    3 2
   3    1    4 1
   4    2   23 1
   5    2   24 1
   6    2   25 1
   7    3    6 1
   8    4   19 1
   9    4   21 1
  10    5    6 1
  11    5    9 1
  12    6    7 2
  13    7    8 1
  14    8    9 ar
  15    8   10 ar
  16    9   13 ar
  17   10   11 ar
  18   10   26 1
  19   11   12 ar
  20   11   27 1
  21   12   13 ar
  22   12   14 1
  23   13   28 1
  24   14   15 1
  25   15   16 1
  26   15   17 1
  27   15   18 1
  28   19   20 1
  29   19   29 1
  30   19   30 1
  31   20   31 1
  32   20   32 1
  33   20   33 1
  34   21   22 1
  35   21   34 1
  36   21   35 1
  37   22   36 1
  38   22   37 1
  39   22   38 1

#	End of record

