#	Name: ASD01914197
#	Creating user name:	WinNT
#	Creation time:	15. 06. 2019 20:03

#	Modifying user name:	WinNT
#	Modification time:	15. 06. 2019 20:03

#	Program:	/corina/corina34_cracker 3.40 0067  02.08.2006

@<TRIPOS>MOLECULE
ASD01914197
  38   40    0    0    0
SMALL
NO_CHARGES


@<TRIPOS>ATOM
   1 C1            -0.0168     1.3858     0.0097 C.ar    
   2 C2             0.0021    -0.0041     0.0020 C.ar    
   3 C3             1.2130    -0.6863    -0.0132 C.ar    
   4 C4             2.3993     0.0128    -0.0203 C.ar    
   5 C5             2.3846     1.4101    -0.0126 C.ar    
   6 C6             1.1652     2.0922     0.0022 C.ar    
   7 N7             3.6376     3.5111    -0.0123 N.am    
   8 C8             3.6538     2.1635    -0.0197 C.2     
   9 O9             4.7140     1.5683    -0.0322 O.2     
  10 O10           -1.1649    -0.6967     0.0099 O.3     
  11 C11           -1.0730    -2.1228     0.0013 C.3     
  12 C12            4.8974     4.2589    -0.0193 C.3     
  13 C13           -2.4585    -2.7155     0.0119 C.ar    
  14 C14           -3.1052    -2.9808    -1.1800 C.ar    
  15 C15           -4.3784    -3.5255    -1.1700 C.ar    
  16 C16           -5.0016    -3.8036     0.0344 C.ar    
  17 C17           -4.3527    -3.5375     1.2254 C.ar    
  18 C18           -3.0797    -2.9990     1.2141 C.ar    
  19 F19           -5.0119    -3.7848    -2.3347 F       
  20 C20            4.7753     5.6778    -0.6062 C.3     
  21 O21            5.6014     6.0853     0.5029 O.3     
  22 C22            5.2121     4.9599     1.3156 C.3     
  23 H23           -0.9597     1.9123     0.0170 H       
  24 H24            1.2235    -1.7663    -0.0191 H       
  25 H25            3.3397    -0.5180    -0.0314 H       
  26 H26            1.1497     3.1721     0.0078 H       
  27 H27            2.7919     3.9859    -0.0024 H       
  28 H28           -0.5457    -2.4475    -0.8957 H       
  29 H29           -0.5280    -2.4570     0.8841 H       
  30 H30            5.7309     3.6852    -0.4246 H       
  31 H31           -2.6182    -2.7630    -2.1190 H       
  32 H32           -5.9947    -4.2281     0.0435 H       
  33 H33           -4.8387    -3.7544     2.1652 H       
  34 H34           -2.5732    -2.7917     2.1452 H       
  35 H35            5.2532     5.7954    -1.5787 H       
  36 H36            3.7637     6.0825    -0.5746 H       
  37 H37            4.3339     5.1454     1.9340 H       
  38 H38            6.0365     4.5082     1.8674 H       
@<TRIPOS>BOND
   1    1    2 ar
   2    1    6 ar
   3    1   23 1
   4    2    3 ar
   5    2   10 1
   6    3    4 ar
   7    3   24 1
   8    4    5 ar
   9    4   25 1
  10    5    6 ar
  11    5    8 1
  12    6   26 1
  13    7    8 am
  14    7   12 1
  15    7   27 1
  16    8    9 2
  17   10   11 1
  18   11   13 1
  19   11   28 1
  20   11   29 1
  21   12   20 1
  22   12   22 1
  23   12   30 1
  24   13   14 ar
  25   13   18 ar
  26   14   15 ar
  27   14   31 1
  28   15   16 ar
  29   15   19 1
  30   16   17 ar
  31   16   32 1
  32   17   18 ar
  33   17   33 1
  34   18   34 1
  35   20   21 1
  36   20   35 1
  37   20   36 1
  38   21   22 1
  39   22   37 1
  40   22   38 1

#	End of record

