#	Name: ASD08170156
#	Creating user name:	WinNT
#	Creation time:	15. 06. 2019 21:17

#	Modifying user name:	WinNT
#	Modification time:	15. 06. 2019 21:17

#	Program:	/corina/corina34_cracker 3.40 0067  02.08.2006

@<TRIPOS>MOLECULE
ASD08170156
  60   61    0    0    0
SMALL
NO_CHARGES


@<TRIPOS>ATOM
   1 Cl1            0.0000     0.0000     0.0000 Cl      
   2 H2             0.0000     1.3700     0.0000 H       
   3 Cl3            5.0000     6.3700     5.0000 Cl      
   4 H4             5.0000     7.7400     5.0000 H       
   5 C5            12.0034    23.6589    11.7951 C.3     
   6 S6            13.4142    26.0023    11.7942 S.3     
   7 C7            15.1759    26.4343    11.7797 C.3     
   8 C8            15.3254    27.9339    11.7863 C.2     
   9 C9            12.0238    22.1520    11.7868 C.2     
  10 S10           15.4150    28.9768    10.3665 S.3     
  11 C11           15.5610    30.3364    11.3984 C.2     
  12 N12           15.5327    29.9283    12.6312 N.2     
  13 N13           15.4056    28.6890    12.8356 N.2     
  14 S14           12.0243    21.1194    10.3567 S.3     
  15 N15           12.0498    21.3826    12.8284 N.2     
  16 N16           12.0635    20.1389    12.6118 N.2     
  17 C17           12.0527    19.7421    11.3750 C.2     
  18 N18           12.0642    18.4185    10.9483 N.am    
  19 C19           12.0891    17.4192    11.8523 C.2     
  20 O20           12.1016    17.6742    13.0379 O.2     
  21 N21           15.6885    31.6581    10.9848 N.am    
  22 C22           15.7959    32.6429    11.8986 C.2     
  23 C23           15.9341    34.0750    11.4504 C.3     
  24 O24           15.7813    32.3765    13.0817 O.2     
  25 C25           12.1016    15.9849    11.3898 C.3     
  26 C26           12.1293    15.0711    12.5878 C.ar    
  27 C27           13.4388    24.1885    11.7842 C.3     
  28 C28           16.0357    34.9716    12.6574 C.ar    
  29 C29           10.9451    14.6365    13.1532 C.ar    
  30 C30           17.2734    35.2641    13.1990 C.ar    
  31 C31           10.9705    13.7983    14.2521 C.ar    
  32 C32           12.1802    13.3943    14.7854 C.ar    
  33 C33           13.3644    13.8282    14.2195 C.ar    
  34 C34           13.3390    14.6629    13.1179 C.ar    
  35 C35           17.3666    36.0865    14.3061 C.ar    
  36 C36           16.2220    36.6167    14.8715 C.ar    
  37 C37           14.9843    36.3250    14.3294 C.ar    
  38 C38           14.8915    35.5061    13.2196 C.ar    
  39 H39           11.4762    24.0199    10.9120 H       
  40 H40           11.4932    24.0104    12.6919 H       
  41 H41           15.6596    26.0171    12.6629 H       
  42 H42           15.6426    26.0266    10.8830 H       
  43 H43           12.0542    18.2146    10.0000 H       
  44 H44           15.7002    31.8711    10.0385 H       
  45 H45           16.8329    34.1804    10.8428 H       
  46 H46           15.0618    34.3569    10.8607 H       
  47 H47           11.2062    15.7852    10.8012 H       
  48 H48           12.9859    15.8083    10.7775 H       
  49 H49           13.9660    23.8274    12.6673 H       
  50 H50           13.9490    23.8369    10.8874 H       
  51 H51           10.0000    14.9521    12.7365 H       
  52 H52           18.1677    34.8498    12.7572 H       
  53 H53           10.0453    13.4593    14.6942 H       
  54 H54           12.2001    12.7400    15.6444 H       
  55 H55           14.3095    13.5129    14.6363 H       
  56 H56           14.2642    15.0019    12.6758 H       
  57 H57           18.3335    36.3144    14.7297 H       
  58 H58           16.2947    37.2587    15.7370 H       
  59 H59           14.0900    36.7390    14.7713 H       
  60 H60           13.9245    35.2781    12.7960 H       
@<TRIPOS>BOND
   1    1    2 1
   2    3    4 1
   3    5    9 1
   4    5   27 1
   5    5   39 1
   6    5   40 1
   7    6    7 1
   8    6   27 1
   9    7    8 1
  10    7   41 1
  11    7   42 1
  12    8   10 1
  13    8   13 2
  14    9   14 1
  15    9   15 2
  16   10   11 1
  17   11   12 2
  18   11   21 1
  19   12   13 1
  20   14   17 1
  21   15   16 1
  22   16   17 2
  23   17   18 1
  24   18   19 am
  25   18   43 1
  26   19   20 2
  27   19   25 1
  28   21   22 am
  29   21   44 1
  30   22   23 1
  31   22   24 2
  32   23   28 1
  33   23   45 1
  34   23   46 1
  35   25   26 1
  36   25   47 1
  37   25   48 1
  38   26   29 ar
  39   26   34 ar
  40   27   49 1
  41   27   50 1
  42   28   30 ar
  43   28   38 ar
  44   29   31 ar
  45   29   51 1
  46   30   35 ar
  47   30   52 1
  48   31   32 ar
  49   31   53 1
  50   32   33 ar
  51   32   54 1
  52   33   34 ar
  53   33   55 1
  54   34   56 1
  55   35   36 ar
  56   35   57 1
  57   36   37 ar
  58   36   58 1
  59   37   38 ar
  60   37   59 1
  61   38   60 1

#	End of record

