#	Name: ASD01350025
#	Creating user name:	WinNT
#	Creation time:	15. 06. 2019 19:16

#	Modifying user name:	WinNT
#	Modification time:	15. 06. 2019 19:16

#	Program:	/corina/corina34_cracker 3.40 0067  02.08.2006

@<TRIPOS>MOLECULE
ASD01350025
  62   65    0    0    0
SMALL
NO_CHARGES


@<TRIPOS>ATOM
   1 C1            -0.0168     1.3849     0.0097 C.ar    
   2 C2             0.0021    -0.0041     0.0020 C.ar    
   3 N3            -1.1970    -0.7204     0.0092 N.pl3   
   4 C4            -2.4764    -0.0069     0.0247 C.3     
   5 C5            -2.9281     0.2454    -1.3907 C.ar    
   6 C6            -3.7184    -0.6844    -2.0401 C.ar    
   7 C7             1.1707     2.0901     0.0021 C.ar    
   8 C8             2.3774     1.4150    -0.0130 C.ar    
   9 C9             2.3998     0.0323    -0.0211 C.ar    
  10 C10            1.2161    -0.6790    -0.0132 C.ar    
  11 C11           -2.5569     1.4093    -2.0376 C.ar    
  12 C12           -2.9712     1.6407    -3.3359 C.ar    
  13 C13           -3.7564     0.7080    -3.9875 C.ar    
  14 C14           -4.1327    -0.4531    -3.3385 C.ar    
  15 C15           -1.1752    -2.1852     0.0011 C.3     
  16 C16           -1.1544    -2.7029     1.4407 C.3     
  17 C17           -1.1317    -4.2327     1.4323 C.3     
  18 N18           -1.1117    -4.7297     2.8145 N.3     
  19 C19           -1.3278    -6.1817     2.8548 C.3     
  20 C20           -1.4459    -6.6410     4.3098 C.3     
  21 C21           -0.1624    -6.2761     5.0608 C.3     
  22 C22            0.0652    -4.7651     4.9625 C.3     
  23 C23            0.1395    -4.3602     3.4886 C.3     
  24 C24           -0.2962    -6.6721     6.5087 C.ar    
  25 O25            0.9450    -6.9648     4.4766 O.3     
  26 C26            0.8246    -7.0341     7.2325 C.ar    
  27 C27            0.7024    -7.3974     8.5604 C.ar    
  28 C28           -0.5419    -7.3987     9.1653 C.ar    
  29 C29           -1.6632    -7.0363     8.4405 C.ar    
  30 C30           -1.5390    -6.6677     7.1141 C.ar    
  31 Cl31          -0.6961    -7.8554    10.8331 Cl      
  32 H32           -0.9590     1.9127     0.0170 H       
  33 H33           -3.2225    -0.6100     0.5422 H       
  34 H34           -2.3555     0.9446     0.5426 H       
  35 H35           -4.0118    -1.5919    -1.5333 H       
  36 H36            1.1567     3.1700     0.0077 H       
  37 H37            3.3046     1.9689    -0.0189 H       
  38 H38            3.3440    -0.4918    -0.0333 H       
  39 H39            1.2343    -1.7589    -0.0195 H       
  40 H40           -1.9434     2.1379    -1.5285 H       
  41 H41           -2.6818     2.5503    -3.8411 H       
  42 H42           -4.0805     0.8890    -5.0017 H       
  43 H43           -4.7462    -1.1817    -3.8475 H       
  44 H44           -2.0644    -2.5590    -0.5066 H       
  45 H45           -0.2847    -2.5325    -0.5228 H       
  46 H46           -0.2652    -2.3291     1.9484 H       
  47 H47           -2.0449    -2.3556     1.9646 H       
  48 H48           -2.0208    -4.6065     0.9245 H       
  49 H49           -0.2411    -4.5799     0.9084 H       
  50 H50           -2.2457    -6.4272     2.3208 H       
  51 H51           -0.4861    -6.6874     2.3815 H       
  52 H52           -2.2957    -6.1461     4.7798 H       
  53 H53           -1.5906    -7.7209     4.3399 H       
  54 H54           -0.7609    -4.2407     5.4428 H       
  55 H55            1.0000    -4.5048     5.4590 H       
  56 H56            0.9742    -4.8744     3.0123 H       
  57 H57            0.2872    -3.2828     3.4149 H       
  58 H58            1.7927    -6.7801     4.9036 H       
  59 H59            1.7958    -7.0334     6.7601 H       
  60 H60            1.5780    -7.6805     9.1257 H       
  61 H61           -2.6347    -7.0370     8.9121 H       
  62 H62           -2.4143    -6.3848     6.5482 H       
@<TRIPOS>BOND
   1    1    2 ar
   2    1    7 ar
   3    1   32 1
   4    2    3 1
   5    2   10 ar
   6    3    4 1
   7    3   15 1
   8    4    5 1
   9    4   33 1
  10    4   34 1
  11    5    6 ar
  12    5   11 ar
  13    6   14 ar
  14    6   35 1
  15    7    8 ar
  16    7   36 1
  17    8    9 ar
  18    8   37 1
  19    9   10 ar
  20    9   38 1
  21   10   39 1
  22   11   12 ar
  23   11   40 1
  24   12   13 ar
  25   12   41 1
  26   13   14 ar
  27   13   42 1
  28   14   43 1
  29   15   16 1
  30   15   44 1
  31   15   45 1
  32   16   17 1
  33   16   46 1
  34   16   47 1
  35   17   18 1
  36   17   48 1
  37   17   49 1
  38   18   19 1
  39   18   23 1
  40   19   20 1
  41   19   50 1
  42   19   51 1
  43   20   21 1
  44   20   52 1
  45   20   53 1
  46   21   22 1
  47   21   24 1
  48   21   25 1
  49   22   23 1
  50   22   54 1
  51   22   55 1
  52   23   56 1
  53   23   57 1
  54   24   26 ar
  55   24   30 ar
  56   25   58 1
  57   26   27 ar
  58   26   59 1
  59   27   28 ar
  60   27   60 1
  61   28   29 ar
  62   28   31 1
  63   29   30 ar
  64   29   61 1
  65   30   62 1

#	End of record

