#	Name: ASD08150489
#	Creating user name:	WinNT
#	Creation time:	15. 06. 2019 21:16

#	Modifying user name:	WinNT
#	Modification time:	15. 06. 2019 21:16

#	Program:	/corina/corina34_cracker 3.40 0067  02.08.2006

@<TRIPOS>MOLECULE
ASD08150489
  43   47    0    0    0
SMALL
NO_CHARGES


@<TRIPOS>ATOM
   1 N1             0.4820     2.1351     1.7733 N.am    
   2 C2             0.7547     1.1954     2.6993 C.2     
   3 C3             1.9680     0.4785     2.6674 C.2     
   4 C4             2.8833     0.7276     1.6965 C.2     
   5 C5             2.5997     1.7152     0.7203 C.ar    
   6 C6             3.5150     2.0125    -0.3077 C.ar    
   7 N7             3.2512     2.9242    -1.2065 N.ar    
   8 C8             2.1057     3.6236    -1.2040 C.ar    
   9 C9             1.1274     3.3906    -0.2070 C.ar    
  10 C10            1.3824     2.4110     0.7806 C.ar    
  11 C11           -0.2703     5.0743    -1.1957 C.ar    
  12 C12            0.6974     5.3002    -2.1772 C.ar    
  13 C13            1.8617     4.5948    -2.1878 C.ar    
  14 O14           -0.0588     0.9622     3.5771 O.2     
  15 C15           -0.7328     2.8299     1.8237 C.ar    
  16 C16           -1.8532     2.3184     1.1826 C.ar    
  17 C17           -3.0513     3.0056     1.2341 C.ar    
  18 C18           -3.1341     4.2041     1.9249 C.ar    
  19 C19           -2.0173     4.7151     2.5646 C.ar    
  20 C20           -0.8199     4.0287     2.5198 C.ar    
  21 Cl21          -4.4527     2.3675     0.4325 Cl      
  22 F22           -4.3058     4.8749     1.9740 F       
  23 C23           -0.0627     4.1270    -0.2144 C.ar    
  24 N24           -1.4611     5.8148    -1.2082 N.pl3   
  25 C25           -2.6976     5.3610    -0.8762 C.2     
  26 N26           -3.5499     6.3401    -1.0119 N.2     
  27 C27           -2.9025     7.4383    -1.4287 C.2     
  28 C28           -1.5964     7.1349    -1.5522 C.2     
  29 C29           -3.5278     8.7813    -1.7050 C.3     
  30 H30            2.1701    -0.2712     3.4181 H       
  31 H31            3.8145     0.1813     1.6685 H       
  32 H32            4.4522     1.4779    -0.3540 H       
  33 H33            0.5193     6.0449    -2.9389 H       
  34 H34            2.5990     4.7828    -2.9543 H       
  35 H35           -1.7884     1.3846     0.6440 H       
  36 H36           -2.0838     5.6494     3.1022 H       
  37 H37            0.0505     4.4277     3.0193 H       
  38 H38           -0.8135     3.9546     0.5425 H       
  39 H39           -2.9356     4.3579    -0.5542 H       
  40 H40           -0.8079     7.8016    -1.8687 H       
  41 H41           -3.5174     9.3812    -0.7950 H       
  42 H42           -2.9615     9.2925    -2.4836 H       
  43 H43           -4.5568     8.6418    -2.0364 H       
@<TRIPOS>BOND
   1    1    2 am
   2    1   10 1
   3    1   15 1
   4    2    3 1
   5    2   14 2
   6    3    4 2
   7    3   30 1
   8    4    5 1
   9    4   31 1
  10    5    6 ar
  11    5   10 ar
  12    6    7 ar
  13    6   32 1
  14    7    8 ar
  15    8    9 ar
  16    8   13 ar
  17    9   10 ar
  18    9   23 ar
  19   11   12 ar
  20   11   24 1
  21   11   23 ar
  22   12   13 ar
  23   12   33 1
  24   13   34 1
  25   15   16 ar
  26   15   20 ar
  27   16   17 ar
  28   16   35 1
  29   17   18 ar
  30   17   21 1
  31   18   19 ar
  32   18   22 1
  33   19   20 ar
  34   19   36 1
  35   20   37 1
  36   23   38 1
  37   24   25 1
  38   24   28 1
  39   25   26 2
  40   25   39 1
  41   26   27 1
  42   27   28 2
  43   27   29 1
  44   28   40 1
  45   29   41 1
  46   29   42 1
  47   29   43 1

#	End of record

