#	Name: ASD08178141
#	Creating user name:	WinNT
#	Creation time:	15. 06. 2019 21:18

#	Modifying user name:	WinNT
#	Modification time:	15. 06. 2019 21:18

#	Program:	/corina/corina34_cracker 3.40 0067  02.08.2006

@<TRIPOS>MOLECULE
ASD08178141
  62   65    0    0    0
SMALL
NO_CHARGES


@<TRIPOS>ATOM
   1 C1            -0.0191     1.5027     0.0207 C.ar    
   2 C2             0.0010    -0.0042     0.0166 C.3     
   3 C3            -0.8034    -0.5283     1.2078 C.3     
   4 C4            -0.7830    -2.0581     1.2036 C.3     
   5 C5            -1.5874    -2.5822     2.3949 C.3     
   6 C6            -1.5673    -4.0891     2.3907 C.2     
   7 N7            -0.6926    -4.8430     2.9773 N.2     
   8 N8            -0.8493    -6.0898     2.8558 N.2     
   9 C9            -1.8644    -6.5050     2.1598 C.2     
  10 S10           -2.7350    -5.1430     1.5925 S.3     
  11 N11           -2.1931    -7.8348     1.9197 N.am    
  12 C12            1.1728     2.2124     0.0064 C.ar    
  13 C13            1.1067     3.5974     0.0109 C.ar    
  14 C14           -0.1542     4.1903     0.0295 C.ar    
  15 N15           -1.2376     3.4283     0.0422 N.ar    
  16 N16           -1.1697     2.1466     0.0324 N.ar    
  17 N17           -0.2749     5.5795     0.0353 N.am    
  18 C18           -1.4926     6.1505    -0.0517 C.2     
  19 O19           -2.4744     5.4610    -0.2290 O.2     
  20 C20           -1.6342     7.6458     0.0713 C.3     
  21 C21           -3.0867     8.0253    -0.0606 C.ar    
  22 C22           -3.8892     8.0891     1.0632 C.ar    
  23 C23           -5.2215     8.4372     0.9422 C.ar    
  24 C24           -5.7512     8.7220    -0.3024 C.ar    
  25 C25           -4.9485     8.6592    -1.4261 C.ar    
  26 C26           -3.6151     8.3153    -1.3046 C.ar    
  27 C27           -1.4281    -8.8206     2.4289 C.2     
  28 O28           -0.4530    -8.5481     3.0966 O.2     
  29 C29           -1.7844   -10.2616     2.1687 C.3     
  30 C30           -1.6536   -10.5534     0.6960 C.ar    
  31 C31           -2.7628   -10.4746    -0.1252 C.ar    
  32 C32           -0.4235   -10.8940     0.1657 C.ar    
  33 C33           -0.3026   -11.1610    -1.1856 C.ar    
  34 C34           -1.4117   -11.0873    -2.0067 C.ar    
  35 C35           -2.6426   -10.7420    -1.4771 C.ar    
  36 Cl36          -4.0364   -10.6499    -2.5078 Cl      
  37 O37           -0.9002   -11.1109     2.9029 O.3     
  38 H38           -0.4409    -0.3709    -0.9099 H       
  39 H39            1.0307    -0.3540     0.0913 H       
  40 H40           -0.3615    -0.1615     2.1343 H       
  41 H41           -1.8331    -0.1785     1.1331 H       
  42 H42           -1.2249    -2.4249     0.2772 H       
  43 H43            0.2467    -2.4079     1.2784 H       
  44 H44           -1.1455    -2.2155     3.3213 H       
  45 H45           -2.6171    -2.2324     2.3201 H       
  46 H46           -2.9730    -8.0528     1.3857 H       
  47 H47            2.1241     1.7012    -0.0074 H       
  48 H48            2.0044     4.1978     0.0007 H       
  49 H49            0.5176     6.1349     0.1018 H       
  50 H50           -1.2615     7.9672     1.0438 H       
  51 H51           -1.0588     8.1313    -0.7169 H       
  52 H52           -3.4753     7.8665     2.0356 H       
  53 H53           -5.8487     8.4863     1.8201 H       
  54 H54           -6.7923     8.9933    -0.3970 H       
  55 H55           -5.3624     8.8814    -2.3985 H       
  56 H56           -2.9879     8.2662    -2.1825 H       
  57 H57           -2.8110   -10.4450     2.4857 H       
  58 H58           -3.7232   -10.2048     0.2887 H       
  59 H59            0.4436   -10.9514     0.8069 H       
  60 H60            0.6588   -11.4268    -1.5995 H       
  61 H61           -1.3170   -11.2951    -3.0622 H       
  62 H62            0.0324   -11.0014     2.6720 H       
@<TRIPOS>BOND
   1    1    2 1
   2    1   12 ar
   3    1   16 ar
   4    2    3 1
   5    2   38 1
   6    2   39 1
   7    3    4 1
   8    3   40 1
   9    3   41 1
  10    4    5 1
  11    4   42 1
  12    4   43 1
  13    5    6 1
  14    5   44 1
  15    5   45 1
  16    6    7 2
  17    6   10 1
  18    7    8 1
  19    8    9 2
  20    9   10 1
  21    9   11 1
  22   11   27 am
  23   11   46 1
  24   12   13 ar
  25   12   47 1
  26   13   14 ar
  27   13   48 1
  28   14   15 ar
  29   14   17 1
  30   15   16 ar
  31   17   18 am
  32   17   49 1
  33   18   19 2
  34   18   20 1
  35   20   21 1
  36   20   50 1
  37   20   51 1
  38   21   22 ar
  39   21   26 ar
  40   22   23 ar
  41   22   52 1
  42   23   24 ar
  43   23   53 1
  44   24   25 ar
  45   24   54 1
  46   25   26 ar
  47   25   55 1
  48   26   56 1
  49   27   28 2
  50   27   29 1
  51   29   30 1
  52   29   37 1
  53   29   57 1
  54   30   31 ar
  55   30   32 ar
  56   31   35 ar
  57   31   58 1
  58   32   33 ar
  59   32   59 1
  60   33   34 ar
  61   33   60 1
  62   34   35 ar
  63   34   61 1
  64   35   36 1
  65   37   62 1

#	End of record

