#	Name: ASD01140445
#	Creating user name:	WinNT
#	Creation time:	15. 06. 2019 19:00

#	Modifying user name:	WinNT
#	Modification time:	15. 06. 2019 19:00

#	Program:	/corina/corina34_cracker 3.40 0067  02.08.2006

@<TRIPOS>MOLECULE
ASD01140445
  41   43    0    0    0
SMALL
NO_CHARGES


@<TRIPOS>ATOM
   1 C1            -0.1017     1.5571    -0.1844 C.2     
   2 C2            -0.2073     0.2028    -0.1175 C.2     
   3 C3             0.9494    -0.5785     0.0415 C.2     
   4 C4             2.1612     0.0088     0.1282 C.2     
   5 C5             1.1714     2.1565    -0.0927 C.2     
   6 N6             1.5619     3.4218    -0.1264 N.2     
   7 N7             2.2822     1.3673     0.0626 N.pl3   
   8 C8             3.3646     2.1995     0.1225 C.2     
   9 C9             2.8971     3.4733     0.0027 C.2     
  10 C10            3.7223     4.7067     0.0138 C.ar    
  11 C11            3.2923     5.8292     0.7191 C.ar    
  12 C12            4.0626     6.9742     0.7269 C.ar    
  13 C13            5.2602     7.0105     0.0361 C.ar    
  14 C14            5.6935     5.8983    -0.6669 C.ar    
  15 C15            4.9319     4.7443    -0.6758 C.ar    
  16 C16            4.8041     1.7858     0.2890 C.3     
  17 C17            5.3850     1.4353    -1.0567 C.2     
  18 N18            6.6682     1.0347    -1.1531 N.am    
  19 O19            4.6976     1.5136    -2.0528 O.2     
  20 C20            7.2328     0.6939    -2.4613 C.3     
  21 C21            7.4984     0.9401     0.0502 C.3     
  22 C22            0.8362    -2.0794     0.1160 C.3     
  23 F23            6.8642     5.9393    -1.3400 F       
  24 F24            0.5581    -2.4612     1.4328 F       
  25 F25           -0.1966    -2.5114    -0.7229 F       
  26 F26            2.0422    -2.6588    -0.2927 F       
  27 H27           -0.9838     2.1672    -0.3109 H       
  28 H28           -1.1759    -0.2698    -0.1859 H       
  29 H29            3.0437    -0.6014     0.2510 H       
  30 H30            2.3571     5.8031     1.2586 H       
  31 H31            3.7293     7.8441     1.2734 H       
  32 H32            5.8594     7.9090     0.0444 H       
  33 H33            5.2719     3.8756    -1.2199 H       
  34 H34            5.3703     2.6084     0.7260 H       
  35 H35            4.8591     0.9176     0.9458 H       
  36 H36            7.6680     1.5856    -2.9126 H       
  37 H37            8.0057    -0.0646    -2.3370 H       
  38 H38            6.4448     0.3073    -3.1076 H       
  39 H39            7.4092    -0.0596     0.4755 H       
  40 H40            8.5392     1.1324    -0.2104 H       
  41 H41            7.1647     1.6769     0.7808 H       
@<TRIPOS>BOND
   1    1    2 2
   2    1    5 1
   3    1   27 1
   4    2    3 1
   5    2   28 1
   6    3    4 2
   7    3   22 1
   8    4    7 1
   9    4   29 1
  10    5    7 1
  11    5    6 2
  12    6    9 1
  13    7    8 1
  14    8    9 2
  15    8   16 1
  16    9   10 1
  17   10   11 ar
  18   10   15 ar
  19   11   12 ar
  20   11   30 1
  21   12   13 ar
  22   12   31 1
  23   13   14 ar
  24   13   32 1
  25   14   15 ar
  26   14   23 1
  27   15   33 1
  28   16   17 1
  29   16   34 1
  30   16   35 1
  31   17   18 am
  32   17   19 2
  33   18   20 1
  34   18   21 1
  35   20   36 1
  36   20   37 1
  37   20   38 1
  38   21   39 1
  39   21   40 1
  40   21   41 1
  41   22   24 1
  42   22   25 1
  43   22   26 1

#	End of record

