#	Name: ASD02030014
#	Creating user name:	WinNT
#	Creation time:	15. 06. 2019 20:14

#	Modifying user name:	WinNT
#	Modification time:	15. 06. 2019 20:14

#	Program:	/corina/corina34_cracker 3.40 0067  02.08.2006

@<TRIPOS>MOLECULE
ASD02030014
  45   46    0    0    0
SMALL
NO_CHARGES


@<TRIPOS>ATOM
   1 C1            -0.0167     1.3802     0.0096 C.ar    
   2 C2             0.0021    -0.0041     0.0020 C.ar    
   3 C3            -1.1870    -0.7112     0.0095 C.ar    
   4 C4            -2.3926    -0.0358     0.0246 C.ar    
   5 C5            -2.4114     1.3467     0.0318 C.ar    
   6 C6            -1.2244     2.0547     0.0305 C.ar    
   7 Cl7            1.4744     2.2691     0.0002 Cl      
   8 Cl8            1.5168    -0.8520    -0.0175 Cl      
   9 C9            -3.6876    -0.8065     0.0328 C.3     
  10 C10           -4.1121    -1.0751     1.4780 C.3     
  11 N11           -5.3744    -1.8264     1.4859 N.3     
  12 C12           -5.8137    -2.1031     2.8601 C.3     
  13 C13           -7.1284    -2.8851     2.8276 C.3     
  14 C14           -7.5859    -3.1732     4.2589 C.3     
  15 O15           -8.7496    -4.0020     4.2292 O.3     
  16 O16           -8.1253    -2.1131     2.1551 O.3     
  17 C17           -9.2879    -4.3536     5.4275 C.ar    
  18 C18          -10.4179    -5.1566     5.4713 C.ar    
  19 C19          -10.9646    -5.5137     6.6885 C.ar    
  20 C20          -10.3833    -5.0697     7.8668 C.ar    
  21 C21           -9.2528    -4.2675     7.8231 C.ar    
  22 C22           -8.7035    -3.9139     6.6060 C.ar    
  23 O23          -10.9221    -5.4205     9.0651 O.3     
  24 C24          -10.2717    -4.9276    10.2381 C.3     
  25 H25           -1.1730    -1.7911     0.0032 H       
  26 H26           -3.3540     1.8736     0.0432 H       
  27 H27           -1.2398     3.1346     0.0361 H       
  28 H28           -4.4598    -0.2249    -0.4706 H       
  29 H29           -3.5495    -1.7544    -0.4875 H       
  30 H30           -3.3399    -1.6568     1.9814 H       
  31 H31           -4.2501    -0.1273     1.9982 H       
  32 H32           -6.0897    -1.3371     0.9692 H       
  33 H33           -5.0533    -2.6919     3.3731 H       
  34 H34           -5.9636    -1.1624     3.3900 H       
  35 H35           -6.9785    -3.8258     2.2978 H       
  36 H36           -6.7892    -3.6846     4.7990 H       
  37 H37           -7.8210    -2.2347     4.7610 H       
  38 H38           -8.3106    -1.2607     2.5725 H       
  39 H39          -10.8705    -5.5024     4.5537 H       
  40 H40          -11.8450    -6.1384     6.7225 H       
  41 H41           -8.8001    -3.9217     8.7407 H       
  42 H42           -7.8231    -3.2893     6.5719 H       
  43 H43          -10.8016    -5.2804    11.1229 H       
  44 H44           -9.2435    -5.2886    10.2624 H       
  45 H45          -10.2738    -3.8377    10.2239 H       
@<TRIPOS>BOND
   1    1    2 ar
   2    1    7 1
   3    1    6 ar
   4    2    3 ar
   5    2    8 1
   6    3    4 ar
   7    3   25 1
   8    4    5 ar
   9    4    9 1
  10    5    6 ar
  11    5   26 1
  12    6   27 1
  13    9   10 1
  14    9   28 1
  15    9   29 1
  16   10   11 1
  17   10   30 1
  18   10   31 1
  19   11   12 1
  20   11   32 1
  21   12   13 1
  22   12   33 1
  23   12   34 1
  24   13   14 1
  25   13   16 1
  26   13   35 1
  27   14   15 1
  28   14   36 1
  29   14   37 1
  30   15   17 1
  31   16   38 1
  32   17   18 ar
  33   17   22 ar
  34   18   19 ar
  35   18   39 1
  36   19   20 ar
  37   19   40 1
  38   20   21 ar
  39   20   23 1
  40   21   22 ar
  41   21   41 1
  42   22   42 1
  43   23   24 1
  44   24   43 1
  45   24   44 1
  46   24   45 1

#	End of record

