#	Name: ASD01882761
#	Creating user name:	WinNT
#	Creation time:	15. 06. 2019 19:45

#	Modifying user name:	WinNT
#	Modification time:	15. 06. 2019 19:45

#	Program:	/corina/corina34_cracker 3.40 0067  02.08.2006

@<TRIPOS>MOLECULE
ASD01882761
  54   57    0    0    0
SMALL
NO_CHARGES


@<TRIPOS>ATOM
   1 C1            -0.0170     1.4017     0.0097 C.2     
   2 C2             0.0021    -0.0041     0.0020 C.2     
   3 C3            -1.2242    -0.6972     0.0100 C.2     
   4 C4            -2.3887    -0.0097     0.0247 C.2     
   5 N5            -2.4081     1.3479     0.0322 N.am    
   6 C6            -1.2689     2.0646     0.0312 C.2     
   7 C7             1.2048     2.1486     0.0021 C.1     
   8 C8            -3.6955     2.0469     0.0477 C.3     
   9 C9            -4.1306     2.2824     1.4955 C.3     
  10 O10           -1.3144     3.2830     0.0380 O.2     
  11 N11            2.1740     2.7411    -0.0040 N.1     
  12 C12           -5.4751     3.0124     1.5117 C.3     
  13 C13           -6.5526     2.1101     0.9070 C.3     
  14 C14           -5.8502     3.3585     2.9541 C.3     
  15 C15            1.2837    -0.7403    -0.0146 C.ar    
  16 C16            1.6435    -1.5339     1.0699 C.ar    
  17 C17            2.8540    -2.2229     1.0413 C.ar    
  18 C18            3.7009    -2.1124    -0.0786 C.ar    
  19 C19            3.3207    -1.3117    -1.1539 C.ar    
  20 C20            2.1330    -0.6427    -1.1255 C.ar    
  21 C21            3.5347    -3.1230     1.9765 C.2     
  22 C22            4.6910    -3.4848     1.3993 C.2     
  23 N23            4.8064    -2.8907     0.1719 N.pl3   
  24 C24            5.9401    -3.0594    -0.7405 C.3     
  25 C25            6.9200    -1.9325    -0.5379 C.ar    
  26 C26            7.9502    -2.0448     0.3831 C.ar    
  27 C27            8.8300    -0.9908     0.5413 C.ar    
  28 N28            8.6975     0.1112    -0.1708 N.ar    
  29 C29            7.7300     0.2529    -1.0555 C.ar    
  30 C30            6.8161    -0.7610    -1.2722 C.ar    
  31 H31           -1.2344    -1.7771     0.0039 H       
  32 H32           -3.3227    -0.5519     0.0303 H       
  33 H33           -3.5949     3.0051    -0.4619 H       
  34 H34           -4.4442     1.4409    -0.4626 H       
  35 H35           -4.2312     1.3242     2.0051 H       
  36 H36           -3.3819     2.8885     2.0058 H       
  37 H37           -5.3981     3.9288     0.9265 H       
  38 H38           -6.2854     1.8636    -0.1205 H       
  39 H39           -6.6296     1.1938     1.4923 H       
  40 H40           -7.5105     2.6302     0.9186 H       
  41 H41           -5.0825     4.0014     3.3849 H       
  42 H42           -6.8080     3.8786     2.9656 H       
  43 H43           -5.9272     2.4422     3.5393 H       
  44 H44            0.9905    -1.6149     1.9263 H       
  45 H45            3.9672    -1.2242    -2.0146 H       
  46 H46            1.8474    -0.0247    -1.9640 H       
  47 H47            3.1747    -3.4350     2.9457 H       
  48 H48            5.4226    -4.1466     1.8388 H       
  49 H49            6.4325    -4.0101    -0.5363 H       
  50 H50            5.5825    -3.0492    -1.7701 H       
  51 H51            8.0636    -2.9445     0.9698 H       
  52 H52            9.6352    -1.0704     1.2567 H       
  53 H53            7.6531     1.1704    -1.6200 H       
  54 H54            6.0261    -0.6391    -1.9985 H       
@<TRIPOS>BOND
   1    1    2 2
   2    1    7 1
   3    1    6 1
   4    2    3 1
   5    2   15 1
   6    3    4 2
   7    3   31 1
   8    4    5 1
   9    4   32 1
  10    5    6 am
  11    5    8 1
  12    6   10 2
  13    7   11 3
  14    8    9 1
  15    8   33 1
  16    8   34 1
  17    9   12 1
  18    9   35 1
  19    9   36 1
  20   12   13 1
  21   12   14 1
  22   12   37 1
  23   13   38 1
  24   13   39 1
  25   13   40 1
  26   14   41 1
  27   14   42 1
  28   14   43 1
  29   15   16 ar
  30   15   20 ar
  31   16   17 ar
  32   16   44 1
  33   17   18 ar
  34   17   21 1
  35   18   19 ar
  36   18   23 1
  37   19   20 ar
  38   19   45 1
  39   20   46 1
  40   21   22 2
  41   21   47 1
  42   22   23 1
  43   22   48 1
  44   23   24 1
  45   24   25 1
  46   24   49 1
  47   24   50 1
  48   25   26 ar
  49   25   30 ar
  50   26   27 ar
  51   26   51 1
  52   27   28 ar
  53   27   52 1
  54   28   29 ar
  55   29   30 ar
  56   29   53 1
  57   30   54 1

#	End of record

