#	Name: ASD04880475
#	Creating user name:	WinNT
#	Creation time:	15. 06. 2019 20:53

#	Modifying user name:	WinNT
#	Modification time:	15. 06. 2019 20:53

#	Program:	/corina/corina34_cracker 3.40 0067  02.08.2006

@<TRIPOS>MOLECULE
ASD04880475
  58   61    0    0    0
SMALL
NO_CHARGES


@<TRIPOS>ATOM
   1 C1            -0.0167     1.3812     0.0096 C.ar    
   2 C2             0.0021    -0.0041     0.0020 C.ar    
   3 C3            -1.1806    -0.7226     0.0099 C.ar    
   4 C4            -2.3927    -0.0197     0.0120 C.ar    
   5 C5            -2.4170     1.3698     0.0259 C.ar    
   6 C6            -1.2251     2.0743     0.0307 C.ar    
   7 O7             1.1549     2.0705     0.0022 O.3     
   8 C8             2.3596     1.3022    -0.0135 C.3     
   9 C9            -3.6336    -0.8169    -0.0197 C.2     
  10 C10           -3.5888    -2.2887     0.3850 C.3     
  11 C11           -4.9540    -2.8218    -0.0537 C.3     
  12 N12           -5.7000    -1.5977    -0.4034 N.am    
  13 N13           -4.8231    -0.5110    -0.3626 N.2     
  14 C14           -7.0106    -1.5380    -0.7117 C.2     
  15 O15           -7.6794    -2.5501    -0.7164 O.2     
  16 C16           -7.6454    -0.2139    -1.0507 C.3     
  17 C17           -7.6128     0.6833     0.1597 C.ar    
  18 O18           -9.0008    -0.4241    -1.4514 O.3     
  19 C19           -6.6423     1.6617     0.2688 C.ar    
  20 C20           -9.1652    -0.6415    -2.8542 C.3     
  21 C21           -6.6124     2.4847     1.3791 C.ar    
  22 C22           -7.5531     2.3295     2.3800 C.ar    
  23 C23           -8.5241     1.3517     2.2704 C.ar    
  24 C24           -8.5567     0.5316     1.1581 C.ar    
  25 C25           -4.8107    -3.7336    -1.2739 C.3     
  26 C26           -5.6397    -3.5614     1.0969 C.3     
  27 C27           -2.4272    -2.8906    -0.4048 C.3     
  28 C28           -1.1253    -2.2236     0.0349 C.3     
  29 O29           -1.2340     3.4341     0.0450 O.3     
  30 C30           -2.5114     4.0745     0.0546 C.3     
  31 H31            0.9469    -0.5272    -0.0105 H       
  32 H32           -3.3597     1.8966     0.0371 H       
  33 H33            3.2185     1.9732    -0.0181 H       
  34 H34            2.3981     0.6688     0.8728 H       
  35 H35            2.3811     0.6783    -0.9071 H       
  36 H36           -3.4485    -2.4010     1.4600 H       
  37 H37           -7.0942     0.2552    -1.8657 H       
  38 H38           -5.9074     1.7829    -0.5132 H       
  39 H39           -8.7989     0.2269    -3.4018 H       
  40 H40           -8.6007    -1.5245    -3.1536 H       
  41 H41          -10.2214    -0.7927    -3.0771 H       
  42 H42           -5.8538     3.2486     1.4647 H       
  43 H43           -7.5293     2.9720     3.2478 H       
  44 H44           -9.2588     1.2303     3.0526 H       
  45 H45           -9.3153    -0.2323     1.0725 H       
  46 H46           -4.1666    -4.5767    -1.0239 H       
  47 H47           -5.7930    -4.1020    -1.5696 H       
  48 H48           -4.3703    -3.1717    -2.0976 H       
  49 H49           -5.7803    -2.8788     1.9350 H       
  50 H50           -6.6089    -3.9325     0.7639 H       
  51 H51           -5.0182    -4.3998     1.4115 H       
  52 H52           -2.3713    -3.9619    -0.2113 H       
  53 H53           -2.5830    -2.7191    -1.4699 H       
  54 H54           -0.3237    -2.5541    -0.6257 H       
  55 H55           -0.8929    -2.5472     1.0494 H       
  56 H56           -3.0685     3.7874    -0.8372 H       
  57 H57           -3.0645     3.7686     0.9427 H       
  58 H58           -2.3756     5.1560     0.0657 H       
@<TRIPOS>BOND
   1    1    2 ar
   2    1    7 1
   3    1    6 ar
   4    2    3 ar
   5    2   31 1
   6    3    4 ar
   7    3   28 1
   8    4    5 ar
   9    4    9 1
  10    5    6 ar
  11    5   32 1
  12    6   29 1
  13    7    8 1
  14    8   33 1
  15    8   34 1
  16    8   35 1
  17    9   10 1
  18    9   13 2
  19   10   11 1
  20   10   27 1
  21   10   36 1
  22   11   12 1
  23   11   25 1
  24   11   26 1
  25   12   13 1
  26   12   14 am
  27   14   15 2
  28   14   16 1
  29   16   17 1
  30   16   18 1
  31   16   37 1
  32   17   19 ar
  33   17   24 ar
  34   18   20 1
  35   19   21 ar
  36   19   38 1
  37   20   39 1
  38   20   40 1
  39   20   41 1
  40   21   22 ar
  41   21   42 1
  42   22   23 ar
  43   22   43 1
  44   23   24 ar
  45   23   44 1
  46   24   45 1
  47   25   46 1
  48   25   47 1
  49   25   48 1
  50   26   49 1
  51   26   50 1
  52   26   51 1
  53   27   28 1
  54   27   52 1
  55   27   53 1
  56   28   54 1
  57   28   55 1
  58   29   30 1
  59   30   56 1
  60   30   57 1
  61   30   58 1

#	End of record

