#	Name: ASD00570009
#	Creating user name:	WinNT
#	Creation time:	15. 06. 2019 18:36

#	Modifying user name:	WinNT
#	Modification time:	15. 06. 2019 18:36

#	Program:	/corina/corina34_cracker 3.40 0067  02.08.2006

@<TRIPOS>MOLECULE
ASD00570009
  62   66    0    0    0
SMALL
NO_CHARGES


@<TRIPOS>ATOM
   1 C1             0.0829     1.1997     0.9200 C.ar    
   2 C2             0.0447    -0.0832     0.3891 C.ar    
   3 C3             1.1830    -0.6739    -0.1104 C.ar    
   4 C4             2.3936     0.0238    -0.0842 C.ar    
   5 C5             2.4287     1.3295     0.4569 C.ar    
   6 C6             1.2636     1.9083     0.9573 C.ar    
   7 N7             3.5355    -0.5218    -0.5650 N.2     
   8 C8             4.6707     0.1318    -0.5403 C.2     
   9 N9             4.7917     1.3968    -0.0347 N.am    
  10 C10            3.7145     2.0399     0.4723 C.2     
  11 C11            6.0403     2.0319    -0.0424 C.ar    
  12 C12            6.9000     1.8884     1.0380 C.ar    
  13 C13            8.1316     2.5164     1.0274 C.ar    
  14 C14            8.5066     3.2876    -0.0587 C.ar    
  15 C15            7.6516     3.4317    -1.1358 C.ar    
  16 C16            6.4227     2.8016    -1.1333 C.ar    
  17 Cl17           9.2079     2.3380     2.3777 Cl      
  18 S18            6.1079    -0.6555    -1.1878 S.3     
  19 C19            5.3960    -2.2398    -1.6970 C.3     
  20 C20            6.4443    -3.0561    -2.4081 C.2     
  21 C21            4.9157    -2.9887    -0.4807 C.ar    
  22 N22            6.0752    -4.0012    -3.2953 N.am    
  23 C23            7.0856    -4.8051    -3.9964 C.3     
  24 C24            6.8347    -4.7063    -5.5044 C.3     
  25 C25            5.3898    -5.1116    -5.8048 C.3     
  26 C26            4.4313    -4.1549    -5.0920 C.3     
  27 C27            4.6547    -4.2513    -3.5751 C.3     
  28 O28            7.6200    -2.8627    -2.1820 O.2     
  29 C29            5.1493    -5.0483    -7.2911 C.2     
  30 N30            3.9388    -5.3651    -7.7919 N.am    
  31 O31            6.0450    -4.7123    -8.0366 O.2     
  32 O32            3.8077     3.1659     0.9256 O.2     
  33 C33            3.5825    -3.3351    -0.3641 C.ar    
  34 C34            3.1419    -4.0221     0.7516 C.ar    
  35 C35            4.0345    -4.3631     1.7505 C.ar    
  36 C36            5.3679    -4.0175     1.6335 C.ar    
  37 C37            5.8093    -3.3343     0.5158 C.ar    
  38 H38           -0.8222     1.6475     1.3030 H       
  39 H39           -0.8899    -0.6241     0.3684 H       
  40 H40            1.1409    -1.6722    -0.5204 H       
  41 H41            1.2864     2.9055     1.3715 H       
  42 H42            6.6070     1.2871     1.8860 H       
  43 H43            9.4688     3.7780    -0.0649 H       
  44 H44            7.9469     4.0345    -1.9819 H       
  45 H45            5.7558     2.9145    -1.9753 H       
  46 H46            4.5565    -2.0617    -2.3690 H       
  47 H47            8.0804    -4.4239    -3.7657 H       
  48 H48            7.0084    -5.8455    -3.6805 H       
  49 H49            7.0011    -3.6809    -5.8345 H       
  50 H50            7.5168    -5.3738    -6.0312 H       
  51 H51            5.2171    -6.1284    -5.4521 H       
  52 H52            4.6202    -3.1347    -5.4259 H       
  53 H53            3.4026    -4.4299    -5.3252 H       
  54 H54            4.3780    -5.2467    -3.2275 H       
  55 H55            4.0463    -3.5027    -3.0678 H       
  56 H56            3.2224    -5.6338    -7.1957 H       
  57 H57            3.7840    -5.3244    -8.7486 H       
  58 H58            2.8851    -3.0687    -1.1445 H       
  59 H59            2.1002    -4.2921     0.8430 H       
  60 H60            3.6902    -4.8992     2.6226 H       
  61 H61            6.0652    -4.2836     2.4141 H       
  62 H62            6.8510    -3.0643     0.4243 H       
@<TRIPOS>BOND
   1    1    2 ar
   2    1    6 ar
   3    1   38 1
   4    2    3 ar
   5    2   39 1
   6    3    4 ar
   7    3   40 1
   8    4    5 ar
   9    4    7 1
  10    5    6 ar
  11    5   10 1
  12    6   41 1
  13    7    8 2
  14    8    9 1
  15    8   18 1
  16    9   10 am
  17    9   11 1
  18   10   32 2
  19   11   12 ar
  20   11   16 ar
  21   12   13 ar
  22   12   42 1
  23   13   14 ar
  24   13   17 1
  25   14   15 ar
  26   14   43 1
  27   15   16 ar
  28   15   44 1
  29   16   45 1
  30   18   19 1
  31   19   20 1
  32   19   21 1
  33   19   46 1
  34   20   22 am
  35   20   28 2
  36   21   33 ar
  37   21   37 ar
  38   22   23 1
  39   22   27 1
  40   23   24 1
  41   23   47 1
  42   23   48 1
  43   24   25 1
  44   24   49 1
  45   24   50 1
  46   25   26 1
  47   25   29 1
  48   25   51 1
  49   26   27 1
  50   26   52 1
  51   26   53 1
  52   27   54 1
  53   27   55 1
  54   29   30 am
  55   29   31 2
  56   30   56 1
  57   30   57 1
  58   33   34 ar
  59   33   58 1
  60   34   35 ar
  61   34   59 1
  62   35   36 ar
  63   35   60 1
  64   36   37 ar
  65   36   61 1
  66   37   62 1

#	End of record

