#	Name: ASD03740117
#	Creating user name:	WinNT
#	Creation time:	15. 06. 2019 20:46

#	Modifying user name:	WinNT
#	Modification time:	15. 06. 2019 20:46

#	Program:	/corina/corina34_cracker 3.40 0067  02.08.2006

@<TRIPOS>MOLECULE
ASD03740117
  33   35    0    0    0
SMALL
NO_CHARGES


@<TRIPOS>ATOM
   1 C1            -0.0167     1.3815     0.0096 C.ar    
   2 C2             0.0021    -0.0041     0.0020 C.ar    
   3 C3             1.2003    -0.6897    -0.0132 C.ar    
   4 C4             2.3987     0.0098    -0.0209 C.ar    
   5 C5             2.3803     1.4148    -0.0132 C.ar    
   6 C6             1.1644     2.0940     0.0022 C.ar    
   7 N7             3.7265    -0.3879    -0.0358 N.pl3   
   8 N8             4.5509     0.7417    -0.0376 N.am    
   9 C9             3.7874     1.8530    -0.0243 C.2     
  10 C10            4.1938    -1.7764    -0.0477 C.3     
  11 C11            4.3404    -2.2448    -1.4725 C.ar    
  12 C12            5.5425    -2.0775    -2.1343 C.ar    
  13 C13            5.6801    -2.5058    -3.4419 C.ar    
  14 C14            4.6161    -3.1022    -4.0901 C.ar    
  15 C15            3.4087    -3.2717    -3.4279 C.ar    
  16 C16            3.2750    -2.8463    -2.1144 C.ar    
  17 O17            4.1854     3.0020    -0.0219 O.2     
  18 O18            2.3602    -3.8578    -4.0636 O.3     
  19 C19            2.5714    -4.2756    -5.4137 C.3     
  20 H20           -0.9607     1.9061     0.0170 H       
  21 H21           -0.9285    -0.5522     0.0084 H       
  22 H22            1.2050    -1.7697    -0.0186 H       
  23 H23            1.1464     3.1738     0.0078 H       
  24 H24            5.5207     0.7279    -0.0470 H       
  25 H25            5.1581    -1.8395     0.4566 H       
  26 H26            3.4711    -2.4074     0.4697 H       
  27 H27            6.3755    -1.6110    -1.6294 H       
  28 H28            6.6202    -2.3736    -3.9569 H       
  29 H29            4.7239    -3.4360    -5.1116 H       
  30 H30            2.3361    -2.9771    -1.5968 H       
  31 H31            3.3792    -5.0068    -5.4457 H       
  32 H32            1.6579    -4.7262    -5.8018 H       
  33 H33            2.8384    -3.4125    -6.0236 H       
@<TRIPOS>BOND
   1    1    2 ar
   2    1    6 ar
   3    1   20 1
   4    2    3 ar
   5    2   21 1
   6    3    4 ar
   7    3   22 1
   8    4    5 ar
   9    4    7 1
  10    5    6 ar
  11    5    9 1
  12    6   23 1
  13    7    8 1
  14    7   10 1
  15    8    9 am
  16    8   24 1
  17    9   17 2
  18   10   11 1
  19   10   25 1
  20   10   26 1
  21   11   12 ar
  22   11   16 ar
  23   12   13 ar
  24   12   27 1
  25   13   14 ar
  26   13   28 1
  27   14   15 ar
  28   14   29 1
  29   15   16 ar
  30   15   18 1
  31   16   30 1
  32   18   19 1
  33   19   31 1
  34   19   32 1
  35   19   33 1

#	End of record

