#	Name: ASD03092158
#	Creating user name:	WinNT
#	Creation time:	15. 06. 2019 20:32

#	Modifying user name:	WinNT
#	Modification time:	15. 06. 2019 20:32

#	Program:	/corina/corina34_cracker 3.40 0067  02.08.2006

@<TRIPOS>MOLECULE
ASD03092158
  54   57    0    0    0
SMALL
NO_CHARGES


@<TRIPOS>ATOM
   1 C1            -0.0174     1.4023     0.0081 C.ar    
   2 C2             0.0052    -0.0037    -0.0054 C.ar    
   3 C3             1.2153    -0.6515    -0.0021 C.ar    
   4 N4             2.3484     0.0394    -0.0239 N.ar    
   5 C5             2.3764     1.3590    -0.0232 C.ar    
   6 C6             1.1933     2.0907    -0.0004 C.ar    
   7 C7            -1.3176    -0.7233    -0.0560 C.3     
   8 C8             1.3137    -2.1536     0.0601 C.3     
   9 C9             0.4095    -2.7977    -0.9932 C.3     
  10 C10           -1.2284    -2.0974     0.6064 C.3     
  11 O11           -0.8532    -3.0564    -0.3863 O.3     
  12 C12           -1.3036     2.1368     0.0250 C.2     
  13 O13           -2.2678     1.6871    -0.5621 O.2     
  14 N14           -1.4046     3.3038     0.6915 N.am    
  15 C15           -2.5791     4.0501     0.6160 C.ar    
  16 C16           -2.7184     5.1949     1.3922 C.ar    
  17 N17           -3.5493     3.6649    -0.1981 N.ar    
  18 C18           -4.6768     4.3419    -0.3001 C.ar    
  19 C19           -4.8858     5.4866     0.4460 C.ar    
  20 C20           -3.8897     5.9271     1.3080 C.ar    
  21 N21            3.5977     2.0229    -0.0450 N.3     
  22 C22            3.7184     2.9415     1.0965 C.3     
  23 C23            4.7158     1.0687    -0.0663 C.3     
  24 C24            6.0360     1.8395    -0.1501 C.3     
  25 O25            6.1216     2.7494     0.9499 O.3     
  26 C26            5.0486     3.6935     1.0010 C.3     
  27 C27            7.2065     0.8559    -0.0919 C.3     
  28 C28            5.2167     4.5920     2.2279 C.3     
  29 Cl29          -6.3742     6.3684     0.3016 Cl      
  30 H30            1.2133     3.1705     0.0100 H       
  31 H31           -2.0687    -0.1261     0.4610 H       
  32 H32           -1.6167    -0.8477    -1.0967 H       
  33 H33            2.3458    -2.4538    -0.1204 H       
  34 H34            1.0096    -2.4927     1.0504 H       
  35 H35            0.2816    -2.1175    -1.8352 H       
  36 H36            0.8519    -3.7326    -1.3372 H       
  37 H37           -0.4776    -2.0751     1.3963 H       
  38 H38           -2.1980    -2.3652     1.0263 H       
  39 H39           -0.6597     3.6243     1.2238 H       
  40 H40           -1.9233     5.5086     2.0523 H       
  41 H41           -5.4462     3.9977    -0.9753 H       
  42 H42           -4.0263     6.8205     1.8993 H       
  43 H43            2.8947     3.6551     1.0782 H       
  44 H44            3.6877     2.3729     2.0260 H       
  45 H45            4.7010     0.4702     0.8446 H       
  46 H46            4.6202     0.4152    -0.9335 H       
  47 H47            6.0737     2.3960    -1.0866 H       
  48 H48            5.0575     4.3039     0.0980 H       
  49 H49            7.1385     0.1603    -0.9283 H       
  50 H50            8.1460     1.4052    -0.1516 H       
  51 H51            7.1688     0.3014     0.8458 H       
  52 H52            5.2095     3.9803     3.1300 H       
  53 H53            6.1638     5.1271     2.1593 H       
  54 H54            4.3965     5.3088     2.2684 H       
@<TRIPOS>BOND
   1    1    2 ar
   2    1    6 ar
   3    1   12 1
   4    2    3 ar
   5    2    7 1
   6    3    4 ar
   7    3    8 1
   8    4    5 ar
   9    5    6 ar
  10    5   21 1
  11    6   30 1
  12    7   10 1
  13    7   31 1
  14    7   32 1
  15    8    9 1
  16    8   33 1
  17    8   34 1
  18    9   11 1
  19    9   35 1
  20    9   36 1
  21   10   11 1
  22   10   37 1
  23   10   38 1
  24   12   13 2
  25   12   14 am
  26   14   15 1
  27   14   39 1
  28   15   17 ar
  29   15   16 ar
  30   16   20 ar
  31   16   40 1
  32   17   18 ar
  33   18   19 ar
  34   18   41 1
  35   19   20 ar
  36   19   29 1
  37   20   42 1
  38   21   23 1
  39   21   22 1
  40   22   26 1
  41   22   43 1
  42   22   44 1
  43   23   24 1
  44   23   45 1
  45   23   46 1
  46   24   25 1
  47   24   27 1
  48   24   47 1
  49   25   26 1
  50   26   28 1
  51   26   48 1
  52   27   49 1
  53   27   50 1
  54   27   51 1
  55   28   52 1
  56   28   53 1
  57   28   54 1

#	End of record

