#	Name: ASD01880305
#	Creating user name:	WinNT
#	Creation time:	15. 06. 2019 19:40

#	Modifying user name:	WinNT
#	Modification time:	15. 06. 2019 19:40

#	Program:	/corina/corina34_cracker 3.40 0067  02.08.2006

@<TRIPOS>MOLECULE
ASD01880305
  42   44    0    0    0
SMALL
NO_CHARGES


@<TRIPOS>ATOM
   1 C1             0.0543     1.3705    -0.8771 C.2     
   2 C2             0.0232     0.0218    -0.6701 C.2     
   3 N3            -1.1186    -0.6808    -0.8745 N.am    
   4 C4            -2.2438    -0.0662    -1.2844 C.2     
   5 C5            -2.2522     1.3219    -1.5083 C.2     
   6 C6            -1.1137     2.0400    -1.3020 C.2     
   7 O7            -3.2609    -0.7167    -1.4630 O.2     
   8 C8            -1.1275    -2.1279    -0.6466 C.3     
   9 C9            -1.5054    -2.4087     0.7850 C.ar    
  10 C10           -2.8350    -2.3749     1.1693 C.ar    
  11 C11           -3.1813    -2.6334     2.4847 C.ar    
  12 C12           -2.1987    -2.9251     3.4131 C.ar    
  13 C13           -0.8702    -2.9584     3.0272 C.ar    
  14 C14           -0.5250    -2.7056     1.7131 C.ar    
  15 F15           -3.7939    -2.0894     0.2615 F       
  16 Cl16          -2.6318    -3.2488     5.0628 Cl      
  17 C17            1.3085     2.1306    -0.6507 C.ar    
  18 C18            1.9507     2.7526    -1.7199 C.ar    
  19 C19            3.1160     3.4588    -1.5062 C.ar    
  20 C20            3.6493     3.5503    -0.2279 C.ar    
  21 C21            3.0120     2.9318     0.8389 C.ar    
  22 C22            1.8435     2.2287     0.6324 C.ar    
  23 O23            4.7982     4.2466    -0.0205 O.3     
  24 C24            4.7060     5.5891    -0.0129 C.2     
  25 O25            5.8189     6.3393     0.0820 O.3     
  26 O26            3.6184     6.1235    -0.0917 O.2     
  27 C27            5.6440     7.7807     0.0843 C.3     
  28 H28            0.9154    -0.4902    -0.3411 H       
  29 H29           -3.1550     1.8151    -1.8372 H       
  30 H30           -1.1023     3.1069    -1.4690 H       
  31 H31           -1.8525    -2.5962    -1.3123 H       
  32 H32           -0.1357    -2.5333    -0.8468 H       
  33 H33           -4.2182    -2.6070     2.7856 H       
  34 H34           -0.1031    -3.1862     3.7525 H       
  35 H35            0.5121    -2.7318     1.4129 H       
  36 H36            1.5364     2.6815    -2.7147 H       
  37 H37            3.6143     3.9407    -2.3343 H       
  38 H38            3.4294     3.0048     1.8323 H       
  39 H39            1.3482     1.7477     1.4628 H       
  40 H40            5.1608     8.0896    -0.8427 H       
  41 H41            5.0226     8.0700     0.9318 H       
  42 H42            6.6173     8.2647     0.1654 H       
@<TRIPOS>BOND
   1    1    2 2
   2    1   17 1
   3    1    6 1
   4    2    3 1
   5    2   28 1
   6    3    4 am
   7    3    8 1
   8    4    5 1
   9    4    7 2
  10    5    6 2
  11    5   29 1
  12    6   30 1
  13    8    9 1
  14    8   31 1
  15    8   32 1
  16    9   10 ar
  17    9   14 ar
  18   10   11 ar
  19   10   15 1
  20   11   12 ar
  21   11   33 1
  22   12   13 ar
  23   12   16 1
  24   13   14 ar
  25   13   34 1
  26   14   35 1
  27   17   18 ar
  28   17   22 ar
  29   18   19 ar
  30   18   36 1
  31   19   20 ar
  32   19   37 1
  33   20   21 ar
  34   20   23 1
  35   21   22 ar
  36   21   38 1
  37   22   39 1
  38   23   24 1
  39   24   25 1
  40   24   26 2
  41   25   27 1
  42   27   40 1
  43   27   41 1
  44   27   42 1

#	End of record

