#	Name: ASD03740243
#	Creating user name:	WinNT
#	Creation time:	15. 06. 2019 20:46

#	Modifying user name:	WinNT
#	Modification time:	15. 06. 2019 20:46

#	Program:	/corina/corina34_cracker 3.40 0067  02.08.2006

@<TRIPOS>MOLECULE
ASD03740243
  17   17    0    0    0
SMALL
NO_CHARGES


@<TRIPOS>ATOM
   1 C1            -0.1927     1.3935     0.0441 C.ar    
   2 N2            -0.3490     0.0138     0.0708 N.pl3   
   3 O3            -2.6717     0.4176    -0.7992 O.2     
   4 C4             1.0255     1.9650     0.3892 C.ar    
   5 O5            -3.6192     2.4198    -0.9552 O.3     
   6 C6             1.1788     3.3360     0.3616 C.ar    
   7 C7             0.1221     4.1535    -0.0096 C.ar    
   8 C8            -1.0945     3.6051    -0.3549 C.ar    
   9 C9            -1.2637     2.2178    -0.3374 C.ar    
  10 C10           -2.5590     1.6244    -0.7111 C.2     
  11 Br11           0.3509     6.0303    -0.0415 Br      
  12 H12            0.4275    -0.5636     0.0030 H       
  13 H13           -1.2345    -0.3724     0.1573 H       
  14 H14            1.8535     1.3354     0.6798 H       
  15 H15           -4.4481     1.9845    -1.1970 H       
  16 H16            2.1279     3.7753     0.6311 H       
  17 H17           -1.9144     4.2463    -0.6429 H       
@<TRIPOS>BOND
   1    1    2 1
   2    1    4 ar
   3    1    9 ar
   4    2   12 1
   5    2   13 1
   6    3   10 2
   7    4    6 ar
   8    4   14 1
   9    5   10 1
  10    5   15 1
  11    6    7 ar
  12    6   16 1
  13    7    8 ar
  14    7   11 1
  15    8    9 ar
  16    8   17 1
  17    9   10 1

#	End of record

