#	Name: ASD07300697
#	Creating user name:	WinNT
#	Creation time:	15. 06. 2019 21:10

#	Modifying user name:	WinNT
#	Modification time:	15. 06. 2019 21:10

#	Program:	/corina/corina34_cracker 3.40 0067  02.08.2006

@<TRIPOS>MOLECULE
ASD07300697
  47   51    0    0    0
SMALL
NO_CHARGES


@<TRIPOS>ATOM
   1 C1            -0.0034     1.3928     0.2418 C.2     
   2 C2             0.0021    -0.0041     0.0020 C.2     
   3 N3             1.1909     2.0669     0.2269 N.pl3   
   4 N4             1.1441    -0.6203    -0.2282 N.2     
   5 C5             2.3024     0.0465    -0.2404 C.2     
   6 C6             2.3476     1.3757    -0.0182 C.2     
   7 N7            -0.9706     2.2585     0.5011 N.2     
   8 C8            -0.4524     3.4732     0.6501 C.2     
   9 C9             0.9142     3.3830     0.4830 C.2     
  10 C10            1.6308     5.7091    -0.0647 C.ar    
  11 C11            1.8883     4.4891     0.5669 C.ar    
  12 C12            3.0837     4.3302     1.2816 C.ar    
  13 C13            3.9639     5.3920     1.3330 C.ar    
  14 C14            3.6372     6.5807     0.6763 C.ar    
  15 N15            2.4943     6.6977     0.0076 N.ar    
  16 C16            4.5726     7.7215     0.7259 C.2     
  17 C17            4.2705     8.8548     0.1048 C.2     
  18 N18           -1.1861    -0.7177     0.0100 N.pl3   
  19 C19           -2.4814    -0.0308     0.1360 C.3     
  20 C20           -3.4039    -0.5295    -0.9821 C.3     
  21 O21           -3.4385    -1.9586    -0.9615 O.3     
  22 C22           -2.1751    -2.5783    -1.2140 C.3     
  23 C23           -1.1900    -2.1840    -0.1135 C.3     
  24 C24           -1.2240     4.7315     0.9543 C.3     
  25 C25           -2.2957     5.1629    -0.0487 C.3     
  26 C26           -2.7055     4.5839     1.3069 C.3     
  27 H27            3.2200    -0.4897    -0.4324 H       
  28 H28            3.2947     1.8946    -0.0333 H       
  29 H29            0.7146     5.8396    -0.6214 H       
  30 H30            3.3103     3.3995     1.7803 H       
  31 H31            4.8940     5.3049     1.8748 H       
  32 H32            5.5028     7.6339     1.2675 H       
  33 H33            3.3402     8.9425    -0.4368 H       
  34 H34            4.9549     9.6895     0.1411 H       
  35 H35           -2.9243    -0.2574     1.1059 H       
  36 H36           -2.3371     1.0454     0.0402 H       
  37 H37           -4.4094    -0.1388    -0.8259 H       
  38 H38           -3.0255    -0.1884    -1.9457 H       
  39 H39           -2.2966    -3.6614    -1.2248 H       
  40 H40           -1.7922    -2.2445    -2.1785 H       
  41 H41           -0.1909    -2.5330    -0.3744 H       
  42 H42           -1.5006    -2.6311     0.8308 H       
  43 H43           -0.6619     5.5171     1.4593 H       
  44 H44           -2.4391     6.2323    -0.2033 H       
  45 H45           -2.4428     4.5366    -0.9286 H       
  46 H46           -3.1221     3.5768     1.3189 H       
  47 H47           -3.1183     5.2725     2.0442 H       
@<TRIPOS>BOND
   1    1    2 1
   2    1    3 1
   3    1    7 2
   4    2    4 2
   5    2   18 1
   6    3    6 1
   7    3    9 1
   8    4    5 1
   9    5    6 2
  10    5   27 1
  11    6   28 1
  12    7    8 1
  13    8    9 2
  14    8   24 1
  15    9   11 1
  16   10   11 ar
  17   10   15 ar
  18   10   29 1
  19   11   12 ar
  20   12   13 ar
  21   12   30 1
  22   13   14 ar
  23   13   31 1
  24   14   15 ar
  25   14   16 1
  26   16   17 2
  27   16   32 1
  28   17   33 1
  29   17   34 1
  30   18   19 1
  31   18   23 1
  32   19   20 1
  33   19   35 1
  34   19   36 1
  35   20   21 1
  36   20   37 1
  37   20   38 1
  38   21   22 1
  39   22   23 1
  40   22   39 1
  41   22   40 1
  42   23   41 1
  43   23   42 1
  44   24   25 1
  45   24   26 1
  46   24   43 1
  47   25   26 1
  48   25   44 1
  49   25   45 1
  50   26   46 1
  51   26   47 1

#	End of record

