#	Name: ASD00431025
#	Creating user name:	WinNT
#	Creation time:	15. 06. 2019 18:35

#	Modifying user name:	WinNT
#	Modification time:	15. 06. 2019 18:35

#	Program:	/corina/corina34_cracker 3.40 0067  02.08.2006

@<TRIPOS>MOLECULE
ASD00431025
  18   17    0    0    0
SMALL
NO_CHARGES


@<TRIPOS>ATOM
   1 C1            -0.2077     1.6563     0.5562 C.3     
   2 N2            -0.1286     0.1899     0.5201 N.3     
   3 C3             1.1499     2.2498     0.1744 C.3     
   4 O4             2.1424     1.8033     1.1005 O.3     
   5 O5             1.5023     1.8240    -1.1434 O.3     
   6 C6             2.4683     2.6589    -1.7851 C.3     
   7 C7             3.3611     2.5477     1.0502 C.3     
   8 H8            -0.9647     1.9969    -0.1503 H       
   9 H9            -0.4764     1.9811     1.5614 H       
  10 H10            0.6103    -0.1472     1.1187 H       
  11 H11           -1.0136    -0.2262     0.7687 H       
  12 H12            1.0912     3.3379     0.2012 H       
  13 H13            2.1451     3.6983    -1.7285 H       
  14 H14            3.4312     2.5502    -1.2860 H       
  15 H15            2.5656     2.3650    -2.8302 H       
  16 H16            3.9716     2.1896     0.2211 H       
  17 H17            3.1358     3.6043     0.9056 H       
  18 H18            3.9056     2.4169     1.9853 H       
@<TRIPOS>BOND
   1    1    2 1
   2    1    3 1
   3    1    8 1
   4    1    9 1
   5    2   10 1
   6    2   11 1
   7    3    4 1
   8    3    5 1
   9    3   12 1
  10    4    7 1
  11    5    6 1
  12    6   13 1
  13    6   14 1
  14    6   15 1
  15    7   16 1
  16    7   17 1
  17    7   18 1

#	End of record

