#	Name: ASD01901542
#	Creating user name:	WinNT
#	Creation time:	15. 06. 2019 19:53

#	Modifying user name:	WinNT
#	Modification time:	15. 06. 2019 19:53

#	Program:	/corina/corina34_cracker 3.40 0067  02.08.2006

@<TRIPOS>MOLECULE
ASD01901542
  39   42    0    0    0
SMALL
NO_CHARGES


@<TRIPOS>ATOM
   1 C1            -0.6166     1.0543     0.9318 C.3     
   2 C2            -0.4778    -0.4694     0.9424 C.3     
   3 C3             0.5062    -0.8842     2.0381 C.3     
   4 C4            -0.0722    -0.5210     3.4072 C.3     
   5 C5             0.7370    -2.3718     1.9690 C.2     
   6 N6            -0.2452    -3.1938     2.1079 N.2     
   7 S7             0.3555    -4.7744     1.9771 S.3     
   8 C8             2.0345    -4.2941     1.7192 C.ar    
   9 C9             3.2132    -4.9955     1.5154 C.ar    
  10 C10            4.3849    -4.2688     1.3441 C.ar    
  11 N11            5.6024    -4.9210     1.1346 N.pl3   
  12 C12            5.6230    -6.1956     0.5601 C.2     
  13 N13            4.5935    -6.8406     0.0792 N.2     
  14 N14            4.9959    -8.0865    -0.4130 N.pl3   
  15 H15            4.4121    -8.7461    -0.8191 H       
  16 C16            6.3463    -8.2264    -0.2299 C.ar    
  17 C17            7.2626    -9.2364    -0.5208 C.ar    
  18 C18            8.5870    -9.0333    -0.1862 C.ar    
  19 C19            8.9670    -7.8445     0.4229 C.ar    
  20 N20            8.0909    -6.9029     0.6905 N.ar    
  21 C21            6.8036    -7.0445     0.3837 C.ar    
  22 C22            4.3228    -2.8745     1.3847 C.ar    
  23 N23            3.1963    -2.2393     1.5788 N.ar    
  24 C24            2.0273    -2.8851     1.7459 C.ar    
  25 H25            0.3559     1.5064     0.7370 H       
  26 H26           -1.3176     1.3498     0.1512 H       
  27 H27           -0.9870     1.3921     1.8996 H       
  28 H28           -1.4503    -0.9215     1.1372 H       
  29 H29           -0.1074    -0.8072    -0.0255 H       
  30 H30            1.4523    -0.3626     1.8933 H       
  31 H31            0.6288    -0.8165     4.1878 H       
  32 H32           -0.2392     0.5550     3.4572 H       
  33 H33           -1.0183    -1.0426     3.5519 H       
  34 H34            3.2202    -6.0752     1.4908 H       
  35 H35            6.4335    -4.4896     1.3877 H       
  36 H36            6.9450   -10.1534    -0.9948 H       
  37 H37            9.3232    -9.7949    -0.3969 H       
  38 H38           10.0041    -7.6911     0.6823 H       
  39 H39            5.2306    -2.3047     1.2525 H       
@<TRIPOS>BOND
   1    1    2 1
   2    1   25 1
   3    1   26 1
   4    1   27 1
   5    2    3 1
   6    2   28 1
   7    2   29 1
   8    3    4 1
   9    3    5 1
  10    3   30 1
  11    4   31 1
  12    4   32 1
  13    4   33 1
  14    5   24 1
  15    5    6 2
  16    6    7 1
  17    7    8 1
  18    8   24 ar
  19    8    9 ar
  20    9   10 ar
  21    9   34 1
  22   10   11 1
  23   10   22 ar
  24   11   12 1
  25   11   35 1
  26   12   21 1
  27   12   13 2
  28   13   14 1
  29   14   15 1
  30   14   16 1
  31   16   21 ar
  32   16   17 ar
  33   17   18 ar
  34   17   36 1
  35   18   19 ar
  36   18   37 1
  37   19   20 ar
  38   19   38 1
  39   20   21 ar
  40   22   23 ar
  41   22   39 1
  42   23   24 ar

#	End of record

