#	Name: ASD03731694
#	Creating user name:	WinNT
#	Creation time:	15. 06. 2019 20:46

#	Modifying user name:	WinNT
#	Modification time:	15. 06. 2019 20:46

#	Program:	/corina/corina34_cracker 3.40 0067  02.08.2006

@<TRIPOS>MOLECULE
ASD03731694
  36   37    0    0    0
SMALL
NO_CHARGES


@<TRIPOS>ATOM
   1 C1            -0.1368     1.4672     0.0334 C.2     
   2 C2            -0.0855    -0.0063     0.0192 C.ar    
   3 C3             1.1398    -0.6647    -0.1384 C.ar    
   4 C4             1.1826    -2.0444    -0.1511 C.ar    
   5 C5             0.0128    -2.7784    -0.0078 C.ar    
   6 C6            -1.2081    -2.1272     0.1492 C.ar    
   7 C7            -1.2599    -0.7504     0.1689 C.ar    
   8 O8             0.8863     2.1124    -0.0919 O.2     
   9 N9            -1.3183     2.0989     0.1797 N.am    
  10 S10           -1.3759     3.7539     0.1957 S.o2    
  11 O11           -2.7511     4.0548     0.3896 O.2     
  12 O12           -0.4009     4.1292     1.1589 O.2     
  13 C13           -0.8462     4.2413    -1.4694 C.3     
  14 O14            0.0593    -4.1349    -0.0213 O.3     
  15 C15           -0.1522    -4.7690    -1.2049 C.ar    
  16 C16           -0.0462    -6.1504    -1.2814 C.ar    
  17 C17           -0.2614    -6.7932    -2.4847 C.ar    
  18 C18           -0.5828    -6.0598    -3.6146 C.ar    
  19 C19           -0.6889    -4.6815    -3.5398 C.ar    
  20 C20           -0.4799    -4.0362    -2.3362 C.ar    
  21 C21            0.3040    -6.9488    -0.0522 C.3     
  22 F22           -0.7925    -6.6899    -4.7911 F       
  23 F23           -2.3432    -2.8467     0.2878 F       
  24 F24            2.2783     0.0489    -0.2783 F       
  25 H25            2.1272    -2.5535    -0.2730 H       
  26 H26           -2.2067    -0.2466     0.2955 H       
  27 H27           -2.1349     1.5843     0.2757 H       
  28 H28           -1.5285     3.8174    -2.2063 H       
  29 H29           -0.8544     5.3283    -1.5496 H       
  30 H30            0.1624     3.8710    -1.6528 H       
  31 H31           -0.1786    -7.8684    -2.5446 H       
  32 H32           -0.9393    -4.1108    -4.4218 H       
  33 H33           -0.5675    -2.9613    -2.2770 H       
  34 H34           -0.6099    -7.2305     0.4707 H       
  35 H35            0.8467    -7.8475    -0.3452 H       
  36 H36            0.9286    -6.3459     0.6069 H       
@<TRIPOS>BOND
   1    1    2 1
   2    1    8 2
   3    1    9 am
   4    2    3 ar
   5    2    7 ar
   6    3    4 ar
   7    3   24 1
   8    4    5 ar
   9    4   25 1
  10    5    6 ar
  11    5   14 1
  12    6    7 ar
  13    6   23 1
  14    7   26 1
  15    9   10 am
  16    9   27 1
  17   10   11 2
  18   10   12 2
  19   10   13 1
  20   13   28 1
  21   13   29 1
  22   13   30 1
  23   14   15 1
  24   15   16 ar
  25   15   20 ar
  26   16   17 ar
  27   16   21 1
  28   17   18 ar
  29   17   31 1
  30   18   19 ar
  31   18   22 1
  32   19   20 ar
  33   19   32 1
  34   20   33 1
  35   21   34 1
  36   21   35 1
  37   21   36 1

#	End of record

