#	Name: ASD03240274
#	Creating user name:	WinNT
#	Creation time:	15. 06. 2019 20:34

#	Modifying user name:	WinNT
#	Modification time:	15. 06. 2019 20:34

#	Program:	/corina/corina34_cracker 3.40 0067  02.08.2006

@<TRIPOS>MOLECULE
ASD03240274
 101  108    0    0    0
SMALL
NO_CHARGES


@<TRIPOS>ATOM
   1 C1            -0.1142     1.2189    -0.6117 C.2     
   2 N2            -0.0093    -0.0229    -0.0309 N.pl3   
   3 C3            -3.6698     2.2406    -0.0322 C.3     
   4 C4            -2.4757     1.2898     0.0731 C.3     
   5 N5            -1.3115     1.8938    -0.5798 N.pl3   
   6 N6             0.9230     1.7586    -1.1878 N.2     
   7 N7            -4.8339     1.6366     0.6207 N.pl3   
   8 C8            -6.0433     2.3183     0.6529 C.ar    
   9 C9            -7.1583     1.7397     1.2782 C.ar    
  10 C10           -8.3654     2.4248     1.3086 C.ar    
  11 C11           -8.4626     3.6853     0.7168 C.ar    
  12 C12           -7.3459     4.2541     0.0958 C.ar    
  13 C13           -6.1477     3.5765     0.0706 C.ar    
  14 C14           -9.7432     4.4172     0.7459 C.2     
  15 N15           -9.8370     5.6342     0.1745 N.am    
  16 O16          -10.7142     3.9223     1.2856 O.2     
  17 C17          -11.0777     6.2806     0.1030 C.ar    
  18 C18          -11.1484     7.6625     0.2211 C.ar    
  19 C19          -12.2362     5.5401    -0.0916 C.ar    
  20 C20          -13.4590     6.1772    -0.1626 C.ar    
  21 C21          -13.5304     7.5587    -0.0388 C.ar    
  22 C22          -12.3711     8.2997     0.1506 C.ar    
  23 N23          -14.7694     8.2044    -0.1111 N.pl3   
  24 C24          -14.8447     9.6616     0.0194 C.3     
  25 C25          -15.9915     7.4233    -0.3174 C.3     
  26 C26           -7.0477     0.4005     1.9042 C.ar    
  27 C27           -7.4980     0.2012     3.2092 C.ar    
  28 C28           -7.3957    -1.0433     3.7905 C.ar    
  29 C29           -6.8414    -2.1040     3.0745 C.ar    
  30 C30           -6.3908    -1.9048     1.7699 C.ar    
  31 C31           -6.4987    -0.6619     1.1862 C.ar    
  32 C32          -16.5624     7.0217     1.0182 C.ar    
  33 C33          -14.7187    10.2951    -1.3421 C.ar    
  34 C34          -17.4570     7.8389     1.6378 C.ar    
  35 C35          -17.9917     7.4672     2.8833 C.ar    
  36 C36          -17.5893     6.2440     3.4749 C.ar    
  37 C37          -16.6629     5.4265     2.8051 C.ar    
  38 C38          -16.1705     5.8162     1.5977 C.ar    
  39 C39          -15.8387    10.5279    -2.0793 C.ar    
  40 C40          -15.7249    11.1189    -3.3493 C.ar    
  41 C41          -14.4419    11.4638    -3.8426 C.ar    
  42 C42          -13.3081    11.2076    -3.0526 C.ar    
  43 C43          -13.4573    10.6391    -1.8251 C.ar    
  44 C44          -16.8584    11.3743    -4.1399 C.ar    
  45 C45          -16.7096    11.9477    -5.3651 C.ar    
  46 C46          -15.4478    12.2865    -5.8504 C.ar    
  47 C47          -14.3279    12.0549    -5.1125 C.ar    
  48 C48          -18.9174     8.2850     3.5537 C.ar    
  49 C49          -19.4137     7.8927     4.7587 C.ar    
  50 C50          -19.0176     6.6899     5.3407 C.ar    
  51 C51          -18.1239     5.8721     4.7203 C.ar    
  52 C52           -6.7309    -3.4438     3.7008 C.ar    
  53 C53           -6.1774    -4.5058     2.9876 C.ar    
  54 C54           -6.0770    -5.7504     3.5754 C.ar    
  55 C55           -6.5249    -5.9451     4.8696 C.ar    
  56 C56           -7.0755    -4.8949     5.5820 C.ar    
  57 C57           -7.1748    -3.6444     5.0067 C.ar    
  58 H58            0.8365    -0.4973    -0.0499 H       
  59 H59           -0.7812    -0.4245     0.3978 H       
  60 H60           -3.4274     3.1838     0.4574 H       
  61 H61           -3.8967     2.4241    -1.0824 H       
  62 H62           -2.2488     1.1063     1.1233 H       
  63 H63           -2.7181     0.3466    -0.4165 H       
  64 H64           -1.3855     2.7699    -0.9895 H       
  65 H65            1.7688     1.2841    -1.2068 H       
  66 H66           -4.7600     0.7605     1.0304 H       
  67 H67           -9.2266     1.9837     1.7883 H       
  68 H68           -7.4228     5.2292    -0.3620 H       
  69 H69           -5.2884     4.0201    -0.4102 H       
  70 H70           -9.0454     6.0624    -0.1872 H       
  71 H71          -10.2469     8.2387     0.3684 H       
  72 H72          -12.1806     4.4659    -0.1878 H       
  73 H73          -14.3599     5.6013    -0.3146 H       
  74 H74          -12.4265     9.3740     0.2469 H       
  75 H75          -15.8019     9.9379     0.4615 H       
  76 H76          -14.0345    10.0114     0.6593 H       
  77 H77          -16.7212     8.0263    -0.8579 H       
  78 H78          -15.7583     6.5298    -0.8963 H       
  79 H79           -7.9266     1.0228     3.7639 H       
  80 H80           -7.7443    -1.1976     4.8010 H       
  81 H81           -5.9613    -2.7262     1.2157 H       
  82 H82           -6.1501    -0.5077     0.1757 H       
  83 H83          -17.7543     8.7684     1.1751 H       
  84 H84          -16.3470     4.4916     3.2440 H       
  85 H85          -15.4590     5.1860     1.0848 H       
  86 H86          -16.8099    10.2595    -1.6905 H       
  87 H87          -12.3241    11.4650    -3.4156 H       
  88 H88          -12.5845    10.4436    -1.2198 H       
  89 H89          -17.8425    11.1165    -3.7771 H       
  90 H90          -17.5823    12.1428    -5.9706 H       
  91 H91          -15.3573    12.7399    -6.8264 H       
  92 H92          -13.3567    12.3230    -5.5013 H       
  93 H93          -19.2330     9.2202     3.1151 H       
  94 H94          -20.1249     8.5231     5.2717 H       
  95 H95          -19.4261     6.4023     6.2981 H       
  96 H96          -17.8264     4.9428     5.1831 H       
  97 H97           -5.8280    -4.3550     1.9769 H       
  98 H98           -5.6484    -6.5740     3.0238 H       
  99 H99           -6.4447    -6.9208     5.3256 H       
 100 H100          -7.4239    -5.0527     6.5920 H       
 101 H101          -7.6048    -2.8251     5.5638 H       
@<TRIPOS>BOND
   1    1    2 1
   2    1    6 2
   3    1    5 1
   4    2   58 1
   5    2   59 1
   6    3    4 1
   7    3    7 1
   8    3   60 1
   9    3   61 1
  10    4    5 1
  11    4   62 1
  12    4   63 1
  13    5   64 1
  14    6   65 1
  15    7    8 1
  16    7   66 1
  17    8    9 ar
  18    8   13 ar
  19    9   10 ar
  20    9   26 1
  21   10   11 ar
  22   10   67 1
  23   11   12 ar
  24   11   14 1
  25   12   13 ar
  26   12   68 1
  27   13   69 1
  28   14   15 am
  29   14   16 2
  30   15   17 1
  31   15   70 1
  32   17   18 ar
  33   17   19 ar
  34   18   22 ar
  35   18   71 1
  36   19   20 ar
  37   19   72 1
  38   20   21 ar
  39   20   73 1
  40   21   22 ar
  41   21   23 1
  42   22   74 1
  43   23   24 1
  44   23   25 1
  45   24   33 1
  46   24   75 1
  47   24   76 1
  48   25   32 1
  49   25   77 1
  50   25   78 1
  51   26   27 ar
  52   26   31 ar
  53   27   28 ar
  54   27   79 1
  55   28   29 ar
  56   28   80 1
  57   29   30 ar
  58   29   52 1
  59   30   31 ar
  60   30   81 1
  61   31   82 1
  62   32   34 ar
  63   32   38 ar
  64   33   39 ar
  65   33   43 ar
  66   34   35 ar
  67   34   83 1
  68   35   36 ar
  69   35   48 ar
  70   36   37 ar
  71   36   51 ar
  72   37   38 ar
  73   37   84 1
  74   38   85 1
  75   39   40 ar
  76   39   86 1
  77   40   41 ar
  78   40   44 ar
  79   41   42 ar
  80   41   47 ar
  81   42   43 ar
  82   42   87 1
  83   43   88 1
  84   44   45 ar
  85   44   89 1
  86   45   46 ar
  87   45   90 1
  88   46   47 ar
  89   46   91 1
  90   47   92 1
  91   48   49 ar
  92   48   93 1
  93   49   50 ar
  94   49   94 1
  95   50   51 ar
  96   50   95 1
  97   51   96 1
  98   52   53 ar
  99   52   57 ar
 100   53   54 ar
 101   53   97 1
 102   54   55 ar
 103   54   98 1
 104   55   56 ar
 105   55   99 1
 106   56   57 ar
 107   56  100 1
 108   57  101 1

#	End of record

