#	Name: ASD01140499
#	Creating user name:	WinNT
#	Creation time:	15. 06. 2019 19:01

#	Modifying user name:	WinNT
#	Modification time:	15. 06. 2019 19:01

#	Program:	/corina/corina34_cracker 3.40 0067  02.08.2006

@<TRIPOS>MOLECULE
ASD01140499
  34   37    0    0    0
SMALL
NO_CHARGES


@<TRIPOS>ATOM
   1 C1            -0.0167     1.3823     0.0096 C.ar    
   2 C2             0.0021    -0.0041     0.0020 C.ar    
   3 C3            -1.1752    -0.7229     0.0094 C.ar    
   4 C4            -2.3969    -0.0591     0.0246 C.ar    
   5 C5            -2.4131     1.3456     0.0328 C.ar    
   6 C6            -1.2197     2.0601     0.0305 C.ar    
   7 N7            -3.5818    -0.7753     0.0311 N.pl3   
   8 C8            -4.7899    -0.1898     0.0457 C.2     
   9 C9            -4.9304     1.1757     0.0553 C.2     
  10 C10           -3.7205     2.0293     0.0490 C.2     
  11 C11           -6.0535     2.1077     0.0716 C.2     
  12 N12           -5.5148     3.3462     0.0744 N.am    
  13 N13           -4.1199     3.2685     0.0606 N.2     
  14 C14           -6.2493     4.5376     0.0884 C.ar    
  15 C15           -5.5914     5.7607     0.0900 C.ar    
  16 C16           -6.3191     6.9346     0.1032 C.ar    
  17 C17           -7.7011     6.8930     0.1149 C.ar    
  18 C18           -8.3594     5.6765     0.1134 C.ar    
  19 C19           -7.6379     4.4994     0.0948 C.ar    
  20 C20           -5.6061     8.2622     0.1055 C.3     
  21 Cl21           1.4761     2.2684     0.0001 Cl      
  22 O22           -7.2405     1.8248     0.0809 O.2     
  23 H23            0.9474    -0.5261    -0.0102 H       
  24 H24           -1.1480    -1.8025     0.0030 H       
  25 H25           -1.2340     3.1400     0.0368 H       
  26 H26           -3.5370    -1.7443     0.0245 H       
  27 H27           -5.6745    -0.8095     0.0497 H       
  28 H28           -4.5119     5.7939     0.0812 H       
  29 H29           -8.2678     7.8123     0.1257 H       
  30 H30           -9.4390     5.6474     0.1225 H       
  31 H31           -8.1525     3.5498     0.0936 H       
  32 H32           -5.4427     8.5886    -0.9216 H       
  33 H33           -6.2139     9.0002     0.6290 H       
  34 H34           -4.6459     8.1581     0.6107 H       
@<TRIPOS>BOND
   1    1    2 ar
   2    1   21 1
   3    1    6 ar
   4    2    3 ar
   5    2   23 1
   6    3    4 ar
   7    3   24 1
   8    4    5 ar
   9    4    7 1
  10    5    6 ar
  11    5   10 1
  12    6   25 1
  13    7    8 1
  14    7   26 1
  15    8    9 2
  16    8   27 1
  17    9   10 1
  18    9   11 1
  19   10   13 2
  20   11   12 am
  21   11   22 2
  22   12   13 1
  23   12   14 1
  24   14   15 ar
  25   14   19 ar
  26   15   16 ar
  27   15   28 1
  28   16   17 ar
  29   16   20 1
  30   17   18 ar
  31   17   29 1
  32   18   19 ar
  33   18   30 1
  34   19   31 1
  35   20   32 1
  36   20   33 1
  37   20   34 1

#	End of record

