#	Name: ASD02500775
#	Creating user name:	WinNT
#	Creation time:	15. 06. 2019 20:23

#	Modifying user name:	WinNT
#	Modification time:	15. 06. 2019 20:23

#	Program:	/corina/corina34_cracker 3.40 0067  02.08.2006

@<TRIPOS>MOLECULE
ASD02500775
  51   54    0    0    0
SMALL
NO_CHARGES


@<TRIPOS>ATOM
   1 O1            -0.0164     1.3569     0.0095 O.3     
   2 C2             0.0021    -0.0041     0.0020 C.ar    
   3 C3             1.1496    -0.6980    -0.3644 C.ar    
   4 O4             2.2825    -0.0325    -0.7194 O.3     
   5 C5             2.1357     1.3497    -1.0629 C.3     
   6 C6             1.2537     2.0177     0.0009 C.3     
   7 C7             1.1451    -2.0846    -0.3687 C.ar    
   8 C8             0.0032    -2.7746    -0.0070 C.ar    
   9 C9            -1.1371    -2.0847     0.3592 C.ar    
  10 C10           -1.1397    -0.7023     0.3645 C.ar    
  11 S11            0.0010    -4.5366    -0.0137 S.o2    
  12 O12           -1.3555    -4.9357    -0.1538 O.2     
  13 O13            1.0256    -4.9357    -0.9138 O.2     
  14 N14            0.4814    -5.0330     1.4914 N.am    
  15 N15           -0.7902    -4.3002     5.4193 N.am    
  16 C16           -1.1602    -5.6072     4.8592 C.3     
  17 C17           -0.2601    -5.9002     3.6548 C.3     
  18 C18           -0.3527    -4.7410     2.6599 C.3     
  19 C19            0.1370    -3.4536     3.3269 C.3     
  20 C20           -0.7587    -3.1329     4.5276 C.3     
  21 S21           -0.4224    -4.1445     7.0264 S.o2    
  22 O22           -0.6554    -2.7834     7.3613 O.2     
  23 O23           -1.0582    -5.2281     7.6904 O.2     
  24 C24            1.3119    -4.4079     7.1924 C.ar    
  25 C25            2.1867    -3.3393     7.0999 C.ar    
  26 C26            3.5495    -3.5475     7.2305 C.ar    
  27 C27            4.0362    -4.8217     7.4531 C.ar    
  28 C28            3.1636    -5.8895     7.5457 C.ar    
  29 C29            1.8001    -5.6828     7.4211 C.ar    
  30 F30            0.9469    -6.7259     7.5176 F       
  31 F31            1.7113    -2.0936     6.8819 F       
  32 H32            3.1142     1.8295    -1.0831 H       
  33 H33            1.6625     1.4372    -2.0409 H       
  34 H34            1.1182     3.0714    -0.2428 H       
  35 H35            1.7236     1.9238     0.9800 H       
  36 H36            2.0346    -2.6260    -0.6551 H       
  37 H37           -2.0275    -2.6266     0.6418 H       
  38 H38           -2.0319    -0.1657     0.6516 H       
  39 H39            1.3150    -5.5171     1.5993 H       
  40 H40           -1.0228    -6.3807     5.6149 H       
  41 H41           -2.2023    -5.5862     4.5401 H       
  42 H42            0.7713    -6.0106     3.9898 H       
  43 H43           -0.5869    -6.8211     3.1719 H       
  44 H44           -1.3884    -4.6151     2.3444 H       
  45 H45            1.1646    -3.5871     3.6650 H       
  46 H46            0.0928    -2.6332     2.6106 H       
  47 H47           -1.7680    -2.9101     4.1815 H       
  48 H48           -0.3564    -2.2738     5.0645 H       
  49 H49            4.2323    -2.7138     7.1580 H       
  50 H50            5.0992    -4.9832     7.5545 H       
  51 H51            3.5451    -6.8848     7.7193 H       
@<TRIPOS>BOND
   1    1    2 1
   2    1    6 1
   3    2    3 ar
   4    2   10 ar
   5    3    4 1
   6    3    7 ar
   7    4    5 1
   8    5    6 1
   9    5   32 1
  10    5   33 1
  11    6   34 1
  12    6   35 1
  13    7    8 ar
  14    7   36 1
  15    8    9 ar
  16    8   11 1
  17    9   10 ar
  18    9   37 1
  19   10   38 1
  20   11   12 2
  21   11   13 2
  22   11   14 am
  23   14   18 1
  24   14   39 1
  25   15   16 1
  26   15   20 1
  27   15   21 am
  28   16   17 1
  29   16   40 1
  30   16   41 1
  31   17   18 1
  32   17   42 1
  33   17   43 1
  34   18   19 1
  35   18   44 1
  36   19   20 1
  37   19   45 1
  38   19   46 1
  39   20   47 1
  40   20   48 1
  41   21   22 2
  42   21   23 2
  43   21   24 1
  44   24   25 ar
  45   24   29 ar
  46   25   26 ar
  47   25   31 1
  48   26   27 ar
  49   26   49 1
  50   27   28 ar
  51   27   50 1
  52   28   29 ar
  53   28   51 1
  54   29   30 1

#	End of record

