#	Name: ASD01913805
#	Creating user name:	WinNT
#	Creation time:	15. 06. 2019 20:02

#	Modifying user name:	WinNT
#	Modification time:	15. 06. 2019 20:02

#	Program:	/corina/corina34_cracker 3.40 0067  02.08.2006

@<TRIPOS>MOLECULE
ASD01913805
  38   40    0    0    0
SMALL
NO_CHARGES


@<TRIPOS>ATOM
   1 C1            -0.0201     1.4273     0.0508 C.2     
   2 C2             0.0002    -0.0044     0.0308 C.1     
   3 C3             0.0168    -1.1781     0.0144 C.1     
   4 C4             0.0371    -2.6099    -0.0057 C.ar    
   5 C5            -1.1385    -3.3352    -0.2490 C.ar    
   6 C6             0.1560    -5.3344    -0.0290 C.ar    
   7 N7             1.2501    -4.6216     0.1921 N.ar    
   8 C8             1.2286    -3.3049     0.2109 C.ar    
   9 C9            -1.0681    -4.7140    -0.2588 C.ar    
  10 N10            0.2332    -6.7258    -0.0385 N.am    
  11 C11           -0.8121    -7.5643    -0.0339 C.2     
  12 O12           -0.4686    -8.8572    -0.0460 O.3     
  13 C13            0.9836    -8.9739    -0.0612 C.3     
  14 C14            1.4752    -7.5135    -0.0616 C.3     
  15 C15            1.4756    -9.7098     1.1868 C.3     
  16 C16            1.4508    -9.6927    -1.3284 C.3     
  17 O17           -1.9663    -7.1850    -0.0195 O.2     
  18 C18            1.0834     2.2771     0.2821 C.2     
  19 N19            0.6648     3.5123     0.2205 N.2     
  20 N20           -0.7084     3.5117    -0.0495 N.pl3   
  21 C21           -1.1196     2.2323    -0.1580 C.2     
  22 C22           -1.5540     4.6992    -0.1951 C.3     
  23 H23           -2.0756    -2.8277    -0.4241 H       
  24 H24            2.1412    -2.7576     0.3953 H       
  25 H25           -1.9534    -5.3046    -0.4425 H       
  26 H26            2.0508    -7.3036    -0.9631 H       
  27 H27            2.0691    -7.3091     0.8292 H       
  28 H28            1.0611   -10.7178     1.2012 H       
  29 H29            2.5641    -9.7647     1.1707 H       
  30 H30            1.1521    -9.1711     2.0774 H       
  31 H31            1.1098    -9.1421    -2.2051 H       
  32 H32            2.5394    -9.7478    -1.3346 H       
  33 H33            1.0359   -10.7005    -1.3484 H       
  34 H34            2.0975     1.9604     0.4765 H       
  35 H35           -2.1262     1.8993    -0.3634 H       
  36 H36           -1.5658     5.0110    -1.2395 H       
  37 H37           -2.5689     4.4640     0.1254 H       
  38 H38           -1.1564     5.5061     0.4205 H       
@<TRIPOS>BOND
   1    1    2 1
   2    1   18 1
   3    1   21 2
   4    2    3 3
   5    3    4 1
   6    4    5 ar
   7    4    8 ar
   8    5    9 ar
   9    5   23 1
  10    6    7 ar
  11    6   10 1
  12    6    9 ar
  13    7    8 ar
  14    8   24 1
  15    9   25 1
  16   10   11 am
  17   10   14 1
  18   11   12 1
  19   11   17 2
  20   12   13 1
  21   13   14 1
  22   13   15 1
  23   13   16 1
  24   14   26 1
  25   14   27 1
  26   15   28 1
  27   15   29 1
  28   15   30 1
  29   16   31 1
  30   16   32 1
  31   16   33 1
  32   18   19 2
  33   18   34 1
  34   19   20 1
  35   20   21 1
  36   20   22 1
  37   21   35 1
  38   22   36 1
  39   22   37 1
  40   22   38 1

#	End of record

