#	Name: ASD01148711
#	Creating user name:	WinNT
#	Creation time:	15. 06. 2019 19:03

#	Modifying user name:	WinNT
#	Modification time:	15. 06. 2019 19:03

#	Program:	/corina/corina34_cracker 3.40 0067  02.08.2006

@<TRIPOS>MOLECULE
ASD01148711
  71   75    0    0    0
SMALL
NO_CHARGES


@<TRIPOS>ATOM
   1 C1            -0.8968     0.2773     0.0644 C.3     
   2 C2            -0.5325    -1.2037     0.1877 C.3     
   3 C3             0.3866    -1.4043     1.3940 C.3     
   4 C4             0.3789     1.1008    -0.1246 C.3     
   5 C5             1.2977     0.9010     1.0820 C.3     
   6 C6             2.5720     1.7269     0.8967 C.3     
   7 C7             3.4893     1.5285     2.1052 C.3     
   8 C8             3.8572     0.0493     2.2282 C.3     
   9 C9             4.7227    -0.1789     3.4533 C.3     
  10 C10            6.0932     0.5063     3.4424 C.3     
  11 C11            6.9164    -0.3478     4.4451 C.3     
  12 C12            6.2435    -1.7425     4.4861 C.3     
  13 C13            5.1216    -1.6795     3.4547 C.3     
  14 C14            5.6616    -2.0726     2.0782 C.3     
  15 C15            3.8724    -2.4813     3.7633 C.3     
  16 C16            2.8861    -2.2573     2.6046 C.3     
  17 C17            2.5752    -0.7761     2.4189 C.3     
  18 C18            1.6623    -0.5799     1.2080 C.3     
  19 O19            7.1853    -2.7572     4.1319 O.3     
  20 C20           -1.8169     0.4778    -1.1414 C.3     
  21 O21           -1.5676     0.7035     1.2521 O.3     
  22 C22            3.4877    -2.7983     1.3332 C.ar    
  23 C23            3.7494    -4.1510     1.2149 C.ar    
  24 C24            4.3007    -4.6500     0.0511 C.ar    
  25 C25            4.5922    -3.7915    -1.0013 C.ar    
  26 C26            4.3280    -2.4332    -0.8791 C.ar    
  27 C27            3.7715    -1.9416     0.2854 C.ar    
  28 N28            5.1503    -4.2927    -2.1795 N.pl3   
  29 C29            5.4287    -5.7254    -2.3065 C.3     
  30 C30            5.4571    -3.3858    -3.2884 C.3     
  31 H31           -1.4408    -1.7913     0.3213 H       
  32 H32           -0.0198    -1.5283    -0.7177 H       
  33 H33           -0.1265    -1.0801     2.2994 H       
  34 H34            0.6456    -2.4594     1.4816 H       
  35 H35            0.8914     0.7744    -1.0296 H       
  36 H36            0.1205     2.1560    -0.2137 H       
  37 H37            0.7838     1.2249     1.9870 H       
  38 H38            3.0871     1.4023    -0.0075 H       
  39 H39            2.3116     2.7816     0.8075 H       
  40 H40            4.3962     2.1188     1.9739 H       
  41 H41            2.9735     1.8511     3.0097 H       
  42 H42            4.3916    -0.2728     1.3344 H       
  43 H43            4.1747     0.0832     4.3583 H       
  44 H44            6.5364     0.4668     2.4474 H       
  45 H45            6.0121     1.5366     3.7891 H       
  46 H46            7.9466    -0.4394     4.1008 H       
  47 H47            6.8913     0.1090     5.4344 H       
  48 H48            5.8344    -1.9354     5.4778 H       
  49 H49            6.7422    -1.9312     2.0579 H       
  50 H50            5.4284    -3.1191     1.8817 H       
  51 H51            5.1990    -1.4476     1.3144 H       
  52 H52            4.1208    -3.5399     3.8393 H       
  53 H53            3.4312    -2.1352     4.6979 H       
  54 H54            1.9598    -2.7915     2.8163 H       
  55 H55            2.0509    -0.4128     3.3028 H       
  56 H56            2.1798    -0.9054     0.3056 H       
  57 H57            7.9429    -2.8167     4.7299 H       
  58 H58           -2.7251    -0.1097    -1.0071 H       
  59 H59           -2.0763     1.5328    -1.2291 H       
  60 H60           -1.3048     0.1530    -2.0472 H       
  61 H61           -2.3863     0.2227     1.4355 H       
  62 H62            3.5228    -4.8178     2.0336 H       
  63 H63            4.5052    -5.7065    -0.0405 H       
  64 H64            4.5535    -1.7630    -1.6954 H       
  65 H65            3.5614    -0.8864     0.3793 H       
  66 H66            4.5013    -6.2871    -2.1946 H       
  67 H67            5.8590    -5.9264    -3.2875 H       
  68 H68            6.1329    -6.0287    -1.5318 H       
  69 H69            6.4752    -3.0118    -3.1807 H       
  70 H70            5.3651    -3.9224    -4.2327 H       
  71 H71            4.7593    -2.5486    -3.2768 H       
@<TRIPOS>BOND
   1    1    2 1
   2    1    4 1
   3    1   20 1
   4    1   21 1
   5    2    3 1
   6    2   31 1
   7    2   32 1
   8    3   18 1
   9    3   33 1
  10    3   34 1
  11    4    5 1
  12    4   35 1
  13    4   36 1
  14    5    6 1
  15    5   18 1
  16    5   37 1
  17    6    7 1
  18    6   38 1
  19    6   39 1
  20    7    8 1
  21    7   40 1
  22    7   41 1
  23    8    9 1
  24    8   17 1
  25    8   42 1
  26    9   10 1
  27    9   13 1
  28    9   43 1
  29   10   11 1
  30   10   44 1
  31   10   45 1
  32   11   12 1
  33   11   46 1
  34   11   47 1
  35   12   13 1
  36   12   19 1
  37   12   48 1
  38   13   14 1
  39   13   15 1
  40   14   49 1
  41   14   50 1
  42   14   51 1
  43   15   16 1
  44   15   52 1
  45   15   53 1
  46   16   22 1
  47   16   17 1
  48   16   54 1
  49   17   18 1
  50   17   55 1
  51   18   56 1
  52   19   57 1
  53   20   58 1
  54   20   59 1
  55   20   60 1
  56   21   61 1
  57   22   23 ar
  58   22   27 ar
  59   23   24 ar
  60   23   62 1
  61   24   25 ar
  62   24   63 1
  63   25   26 ar
  64   25   28 1
  65   26   27 ar
  66   26   64 1
  67   27   65 1
  68   28   29 1
  69   28   30 1
  70   29   66 1
  71   29   67 1
  72   29   68 1
  73   30   69 1
  74   30   70 1
  75   30   71 1

#	End of record

