#	Name: ASD02620001
#	Creating user name:	WinNT
#	Creation time:	15. 06. 2019 20:25

#	Modifying user name:	WinNT
#	Modification time:	15. 06. 2019 20:25

#	Program:	/corina/corina34_cracker 3.40 0067  02.08.2006

@<TRIPOS>MOLECULE
ASD02620001
  32   34    0    0    0
SMALL
NO_CHARGES


@<TRIPOS>ATOM
   1 C1            -0.0153     1.2783     0.0091 C.2     
   2 N2             0.0021    -0.0041     0.0020 N.2     
   3 C3             1.3882    -0.4924    -0.0138 C.3     
   4 C4             2.2336     0.7974    -0.0150 C.3     
   5 N5             1.2161     1.8622     0.0004 N.pl3   
   6 C6            -1.2943     2.0752     0.0196 C.3     
   7 O7            -2.4111     1.1836     0.0208 O.3     
   8 C8            -3.6487     1.7450     0.0299 C.ar    
   9 C9            -4.7776     0.9383     0.0316 C.ar    
  10 C10           -6.0344     1.5113     0.0408 C.ar    
  11 C11           -6.1680     2.8877     0.0480 C.ar    
  12 C12           -5.0448     3.6936     0.0459 C.ar    
  13 C13           -3.7854     3.1253     0.0433 C.ar    
  14 C14           -4.6327    -0.5617     0.0228 C.3     
  15 C15           -5.2340    -1.3364     1.1972 C.3     
  16 C16           -5.9015    -1.3928    -0.1784 C.3     
  17 H17            1.5954    -1.0850     0.8772 H       
  18 H18            1.5783    -1.0754    -0.9150 H       
  19 H19            2.8589     0.8490     0.8764 H       
  20 H20            2.8418     0.8587    -0.9175 H       
  21 H21            1.3923     2.8160     0.0034 H       
  22 H22           -1.3264     2.6989     0.9129 H       
  23 H23           -1.3355     2.7079    -0.8670 H       
  24 H24           -6.9134     0.8839     0.0421 H       
  25 H25           -7.1516     3.3338     0.0548 H       
  26 H26           -5.1518     4.7683     0.0511 H       
  27 H27           -2.9082     3.7553     0.0466 H       
  28 H28           -3.7076    -0.9421    -0.4102 H       
  29 H29           -4.7046    -2.2267     1.5366 H       
  30 H30           -5.7344    -0.7611     1.9761 H       
  31 H31           -6.8410    -0.8546    -0.3044 H       
  32 H32           -5.8112    -2.3202    -0.7440 H       
@<TRIPOS>BOND
   1    1    2 2
   2    1    5 1
   3    1    6 1
   4    2    3 1
   5    3    4 1
   6    3   17 1
   7    3   18 1
   8    4    5 1
   9    4   19 1
  10    4   20 1
  11    5   21 1
  12    6    7 1
  13    6   22 1
  14    6   23 1
  15    7    8 1
  16    8    9 ar
  17    8   13 ar
  18    9   10 ar
  19    9   14 1
  20   10   11 ar
  21   10   24 1
  22   11   12 ar
  23   11   25 1
  24   12   13 ar
  25   12   26 1
  26   13   27 1
  27   14   15 1
  28   14   16 1
  29   14   28 1
  30   15   16 1
  31   15   29 1
  32   15   30 1
  33   16   31 1
  34   16   32 1

#	End of record

