#	Name: ASD03331315
#	Creating user name:	WinNT
#	Creation time:	15. 06. 2019 20:39

#	Modifying user name:	WinNT
#	Modification time:	15. 06. 2019 20:39

#	Program:	/corina/corina34_cracker 3.40 0067  02.08.2006

@<TRIPOS>MOLECULE
ASD03331315
  47   49    0    0    0
SMALL
NO_CHARGES


@<TRIPOS>ATOM
   1 C1            -0.0184     1.5037     0.0103 C.3     
   2 C2             0.0021    -0.0041     0.0020 C.2     
   3 C3             1.0931    -0.7348    -0.3316 C.2     
   4 C4             2.4088    -0.1173    -0.7366 C.3     
   5 C5             2.1513     1.3572    -1.0775 C.3     
   6 N6             1.3738     1.9846    -0.0004 N.3     
   7 N7            -0.5755    -2.1221     0.1777 N.2     
   8 N8             0.7655    -2.0449    -0.2297 N.am    
   9 C9            -1.0358    -0.8953     0.3172 C.2     
  10 C10            1.5817    -3.0887    -0.4762 C.2     
  11 O11            2.7289    -2.8937    -0.8254 O.2     
  12 N12            1.1252    -4.3490    -0.3353 N.am    
  13 C13            1.4240     3.4494    -0.0992 C.3     
  14 C14           -2.4099    -0.5214     0.7341 C.ar    
  15 C15           -3.4958    -1.3015     0.3410 C.ar    
  16 C16           -4.7732    -0.9497     0.7320 C.ar    
  17 C17           -4.9746     0.1787     1.5144 C.ar    
  18 C18           -3.8972     0.9552     1.9062 C.ar    
  19 C19           -2.6172     0.6071     1.5244 C.ar    
  20 F20           -6.2251     0.5206     1.8945 F       
  21 F21           -5.8273    -1.7045     0.3520 F       
  22 C22            2.0123    -5.4836    -0.6032 C.3     
  23 C23            3.2189    -5.4204     0.3355 C.3     
  24 C24            1.2527    -6.7911    -0.3700 C.3     
  25 C25            2.4919    -5.4244    -2.0549 C.3     
  26 H26           -0.5402     1.8690    -0.8742 H       
  27 H27           -0.5231     1.8595     0.9085 H       
  28 H28            3.1185    -0.1870     0.0878 H       
  29 H29            2.8055    -0.6342    -1.6105 H       
  30 H30            3.1037     1.8760    -1.1872 H       
  31 H31            1.5938     1.4217    -2.0119 H       
  32 H32            0.2093    -4.5047    -0.0564 H       
  33 H33            0.9089     3.8891     0.7549 H       
  34 H34            2.4633     3.7778    -0.1051 H       
  35 H35            0.9370     3.7683    -1.0207 H       
  36 H36           -3.3390    -2.1792    -0.2685 H       
  37 H37           -4.0582     1.8325     2.5151 H       
  38 H38           -1.7776     1.2116     1.8342 H       
  39 H39            2.8772    -5.4626     1.3697 H       
  40 H40            3.8789    -6.2646     0.1362 H       
  41 H41            3.7601    -4.4889     0.1694 H       
  42 H42            0.3931    -6.8361    -1.0387 H       
  43 H43            1.9127    -7.6353    -0.5693 H       
  44 H44            0.9110    -6.8333     0.6642 H       
  45 H45            3.0331    -4.4929    -2.2210 H       
  46 H46            3.1519    -6.2686    -2.2542 H       
  47 H47            1.6323    -5.4694    -2.7236 H       
@<TRIPOS>BOND
   1    1    2 1
   2    1    6 1
   3    1   26 1
   4    1   27 1
   5    2    3 2
   6    2    9 1
   7    3    4 1
   8    3    8 1
   9    4    5 1
  10    4   28 1
  11    4   29 1
  12    5    6 1
  13    5   30 1
  14    5   31 1
  15    6   13 1
  16    7    8 1
  17    7    9 2
  18    8   10 am
  19    9   14 1
  20   10   11 2
  21   10   12 am
  22   12   22 1
  23   12   32 1
  24   13   33 1
  25   13   34 1
  26   13   35 1
  27   14   15 ar
  28   14   19 ar
  29   15   16 ar
  30   15   36 1
  31   16   17 ar
  32   16   21 1
  33   17   18 ar
  34   17   20 1
  35   18   19 ar
  36   18   37 1
  37   19   38 1
  38   22   23 1
  39   22   25 1
  40   22   24 1
  41   23   39 1
  42   23   40 1
  43   23   41 1
  44   24   42 1
  45   24   43 1
  46   24   44 1
  47   25   45 1
  48   25   46 1
  49   25   47 1

#	End of record

