#	Name: ASD03730693
#	Creating user name:	WinNT
#	Creation time:	15. 06. 2019 20:44

#	Modifying user name:	WinNT
#	Modification time:	15. 06. 2019 20:44

#	Program:	/corina/corina34_cracker 3.40 0067  02.08.2006

@<TRIPOS>MOLECULE
ASD03730693
  59   65    0    0    0
SMALL
NO_CHARGES


@<TRIPOS>ATOM
   1 C1             1.3708    -1.2048    -2.4867 C.2     
   2 C2             0.4779    -1.1518    -1.3100 C.ar    
   3 C3             0.7362    -0.2525    -0.2738 C.ar    
   4 C4            -0.1010    -0.2083     0.8215 C.ar    
   5 C5            -1.1948    -1.0528     0.8948 C.ar    
   6 C6            -1.4565    -1.9463    -0.1285 C.ar    
   7 C7            -0.6303    -1.9967    -1.2324 C.ar    
   8 O8             2.3116    -0.4395    -2.5708 O.2     
   9 N9             1.1452    -2.1051    -3.4639 N.am    
  10 C10            1.8730    -2.0402    -4.6563 C.ar    
  11 C11            1.3643    -2.6139    -5.8143 C.ar    
  12 C12            2.0856    -2.5480    -6.9902 C.ar    
  13 C13            3.3132    -1.9120    -7.0154 C.ar    
  14 C14            3.8226    -1.3397    -5.8641 C.ar    
  15 C15            3.1035    -1.3967    -4.6864 C.ar    
  16 C16            1.9272     0.6675    -0.3516 C.3     
  17 O17            0.1198    -0.7029     6.4709 O.3     
  18 C18            0.0790    -0.3753     7.8723 C.3     
  19 O19            1.3652     0.2218     8.1218 O.3     
  20 C20            1.7572     0.7580     6.9286 C.ar    
  21 C21            0.9917     0.1882     5.9138 C.ar    
  22 C22            2.7203     1.7023     6.6214 C.ar    
  23 C23            2.9334     2.0884     5.3015 C.ar    
  24 C24            2.1682     1.5062     4.2956 C.ar    
  25 C25            1.2030     0.5689     4.5992 C.ar    
  26 O26            3.8079     3.0021     4.7909 O.3     
  27 C27            2.6452     2.0985     2.9966 C.3     
  28 C28            3.9743     2.7634     3.3799 C.3     
  29 N29            2.0422     1.4242     0.8975 N.am    
  30 C30            2.8272     1.0573     1.9301 C.2     
  31 C31            1.6697     3.0853     2.4268 C.ar    
  32 C32            1.1052     4.2479     2.9021 C.ar    
  33 C33            0.2140     4.9570     2.1166 C.ar    
  34 C34           -0.1088     4.4951     0.8535 C.ar    
  35 C35            0.4533     3.3307     0.3734 C.ar    
  36 C36            1.3517     2.6105     1.1570 C.ar    
  37 O37            3.5408     0.0782     1.9865 O.2     
  38 H38            0.0979     0.4866     1.6240 H       
  39 H39           -1.8470    -1.0144     1.7548 H       
  40 H40           -2.3118    -2.6026    -0.0652 H       
  41 H41           -0.8384    -2.6913    -2.0328 H       
  42 H42            0.4780    -2.7983    -3.3401 H       
  43 H43            0.4058    -3.1114    -5.7952 H       
  44 H44            1.6906    -2.9940    -7.8911 H       
  45 H45            3.8757    -1.8625    -7.9360 H       
  46 H46            4.7818    -0.8441    -5.8870 H       
  47 H47            3.4998    -0.9457    -3.7887 H       
  48 H48            2.8317     0.0787    -0.5043 H       
  49 H49            1.7986     1.3586    -1.1846 H       
  50 H50           -0.7201     0.3375     8.0758 H       
  51 H51           -0.0480    -1.2761     8.4727 H       
  52 H52            3.3107     2.1427     7.4112 H       
  53 H53            0.6107     0.1305     3.8097 H       
  54 H54            4.1071     3.7019     2.8416 H       
  55 H55            4.8112     2.0893     3.1974 H       
  56 H56            1.3586     4.6066     3.8888 H       
  57 H57           -0.2282     5.8693     2.4887 H       
  58 H58           -0.8045     5.0487     0.2404 H       
  59 H59            0.1959     2.9761    -0.6138 H       
@<TRIPOS>BOND
   1    1    2 1
   2    1    8 2
   3    1    9 am
   4    2    3 ar
   5    2    7 ar
   6    3    4 ar
   7    3   16 1
   8    4    5 ar
   9    4   38 1
  10    5    6 ar
  11    5   39 1
  12    6    7 ar
  13    6   40 1
  14    7   41 1
  15    9   10 1
  16    9   42 1
  17   10   11 ar
  18   10   15 ar
  19   11   12 ar
  20   11   43 1
  21   12   13 ar
  22   12   44 1
  23   13   14 ar
  24   13   45 1
  25   14   15 ar
  26   14   46 1
  27   15   47 1
  28   16   29 1
  29   16   48 1
  30   16   49 1
  31   17   18 1
  32   17   21 1
  33   18   19 1
  34   18   50 1
  35   18   51 1
  36   19   20 1
  37   20   21 ar
  38   20   22 ar
  39   21   25 ar
  40   22   23 ar
  41   22   52 1
  42   23   24 ar
  43   23   26 1
  44   24   25 ar
  45   24   27 1
  46   25   53 1
  47   26   28 1
  48   27   28 1
  49   27   30 1
  50   27   31 1
  51   28   54 1
  52   28   55 1
  53   29   30 am
  54   29   36 1
  55   30   37 2
  56   31   32 ar
  57   31   36 ar
  58   32   33 ar
  59   32   56 1
  60   33   34 ar
  61   33   57 1
  62   34   35 ar
  63   34   58 1
  64   35   36 ar
  65   35   59 1

#	End of record

