#	Name: ASD03240482
#	Creating user name:	WinNT
#	Creation time:	15. 06. 2019 20:35

#	Modifying user name:	WinNT
#	Modification time:	15. 06. 2019 20:35

#	Program:	/corina/corina34_cracker 3.40 0067  02.08.2006

@<TRIPOS>MOLECULE
ASD03240482
  44   46    0    0    0
SMALL
NO_CHARGES


@<TRIPOS>ATOM
   1 C1            -0.0687     1.4766     0.0646 C.ar    
   2 C2             0.6058     4.0492    -1.4802 C.ar    
   3 C3             1.3916     2.9281    -1.2833 C.ar    
   4 C4             1.2788     2.1484     0.0014 C.3     
   5 C5             0.7052     4.7670    -2.6549 C.ar    
   6 C6             1.5988     4.3605    -3.6432 C.ar    
   7 C7             2.3875     3.2303    -3.4399 C.ar    
   8 C8             2.2802     2.5198    -2.2614 C.ar    
   9 C9             1.7096     5.1284    -4.9090 C.2     
  10 C10            2.5384     4.8438    -5.9548 C.2     
  11 N11            2.3329     5.7787    -6.9042 N.pl3   
  12 N12            1.3542     6.6659    -6.4402 N.2     
  13 C13            0.9738     6.2796    -5.2512 C.2     
  14 C14           -0.1572     0.0988    -0.0105 C.ar    
  15 C15           -1.3913    -0.5194     0.0473 C.ar    
  16 C16            1.4308     3.0994     1.1902 C.3     
  17 N17            1.4408     2.3251     2.4386 N.3     
  18 C18            1.5856     3.2073     3.6041 C.3     
  19 C19           -2.5423     0.2434     0.1807 C.ar    
  20 C20           -2.4509     1.6256     0.2558 C.ar    
  21 C21           -1.2140     2.2387     0.2033 C.ar    
  22 O22           -3.7575    -0.3624     0.2373 O.3     
  23 C23           -4.8994     0.4857     0.3751 C.3     
  24 H24           -0.0899     4.3610    -0.7152 H       
  25 H25            2.0635     1.3928     0.0379 H       
  26 H26            0.0909     5.6421    -2.8078 H       
  27 H27            3.0819     2.9109    -4.2029 H       
  28 H28            2.8914     1.6437    -2.1027 H       
  29 H29            3.2333     4.0190    -6.0117 H       
  30 H30            2.7853     5.8283    -7.7609 H       
  31 H31            0.2300     6.7631    -4.6352 H       
  32 H32            0.7392    -0.4946    -0.1147 H       
  33 H33           -1.4599    -1.5956    -0.0118 H       
  34 H34            2.3665     3.6507     1.0971 H       
  35 H35            0.5960     3.8001     1.2040 H       
  36 H36            0.6119     1.7552     2.5172 H       
  37 H37            2.5224     3.7594     3.5278 H       
  38 H38            0.7519     3.9088     3.6347 H       
  39 H39            1.5900     2.6084     4.5148 H       
  40 H40           -3.3455     2.2216     0.3597 H       
  41 H41           -1.1422     3.3147     0.2618 H       
  42 H42           -5.8027    -0.1236     0.4076 H       
  43 H43           -4.8157     1.0608     1.2972 H       
  44 H44           -4.9509     1.1666    -0.4745 H       
@<TRIPOS>BOND
   1    1   14 ar
   2    1    4 1
   3    1   21 ar
   4    2    3 ar
   5    2    5 ar
   6    2   24 1
   7    3    4 1
   8    3    8 ar
   9    4   16 1
  10    4   25 1
  11    5    6 ar
  12    5   26 1
  13    6    7 ar
  14    6    9 1
  15    7    8 ar
  16    7   27 1
  17    8   28 1
  18    9   10 2
  19    9   13 1
  20   10   11 1
  21   10   29 1
  22   11   12 1
  23   11   30 1
  24   12   13 2
  25   13   31 1
  26   14   15 ar
  27   14   32 1
  28   15   19 ar
  29   15   33 1
  30   16   17 1
  31   16   34 1
  32   16   35 1
  33   17   18 1
  34   17   36 1
  35   18   37 1
  36   18   38 1
  37   18   39 1
  38   19   20 ar
  39   19   22 1
  40   20   21 ar
  41   20   40 1
  42   21   41 1
  43   22   23 1
  44   23   42 1
  45   23   43 1
  46   23   44 1

#	End of record

