#	Name: ASD01411609
#	Creating user name:	WinNT
#	Creation time:	15. 06. 2019 19:19

#	Modifying user name:	WinNT
#	Modification time:	15. 06. 2019 19:19

#	Program:	/corina/corina34_cracker 3.40 0067  02.08.2006

@<TRIPOS>MOLECULE
ASD01411609
  52   53    0    0    0
SMALL
NO_CHARGES


@<TRIPOS>ATOM
   1 C1            -0.0164     1.3572     0.0095 C.ar    
   2 C2             0.0021    -0.0041     0.0020 C.ar    
   3 C3             1.2314    -0.6823    -0.0134 C.ar    
   4 C4             2.4364     0.0627    -0.0210 C.ar    
   5 C5             2.3782     1.4669    -0.0133 C.ar    
   6 C6             1.1685     2.0906     0.0021 C.ar    
   7 C7             1.2906    -2.0910    -0.0210 C.ar    
   8 C8             2.5064    -2.7142    -0.0356 C.ar    
   9 C9             3.6879    -1.9776    -0.0426 C.ar    
  10 C10            3.6670    -0.6164    -0.0356 C.ar    
  11 O11            0.1469    -2.8234    -0.0133 O.3     
  12 P12           -0.1853    -3.5042     1.4073 P.3     
  13 O13            1.0432    -4.1174     1.9598 O.2     
  14 N14           -0.7546    -2.3315     2.4719 N.3     
  15 O15           -1.3092    -4.6397     1.2086 O.3     
  16 C16           -1.6706    -5.5652     2.2356 C.3     
  17 C17           -1.9760    -1.6999     1.9551 C.3     
  18 C18           -1.9926    -0.2444     2.3454 C.2     
  19 C19           -3.2014    -2.4003     2.5458 C.3     
  20 O20           -3.0207     0.5370     1.9791 O.3     
  21 O21           -1.0805     0.2192     2.9881 O.2     
  22 C22           -2.9699     1.9288     2.3899 C.3     
  23 C23           -4.2177     2.6556     1.8844 C.3     
  24 C24           -5.4661     1.9953     2.4730 C.3     
  25 C25           -4.1642     4.1221     2.3173 C.3     
  26 C26           -4.2707     2.5762     0.3574 C.3     
  27 H27           -0.9634     1.8764     0.0168 H       
  28 H28           -0.9242    -0.5595     0.0083 H       
  29 H29            3.2885     2.0480    -0.0189 H       
  30 H30            1.1264     3.1697     0.0076 H       
  31 H31            2.5516    -3.7932    -0.0414 H       
  32 H32            4.6362    -2.4944    -0.0538 H       
  33 H33            4.5928    -0.0602    -0.0420 H       
  34 H34           -0.9094    -2.7210     3.3897 H       
  35 H35           -0.7965    -6.1501     2.5217 H       
  36 H36           -2.0419    -5.0190     3.1027 H       
  37 H37           -2.4491    -6.2325     1.8658 H       
  38 H38           -1.9974    -1.7850     0.8687 H       
  39 H39           -3.1801    -2.3151     3.6322 H       
  40 H40           -4.1078    -1.9316     2.1624 H       
  41 H41           -3.1894    -3.4530     2.2635 H       
  42 H42           -2.9322     1.9853     3.4778 H       
  43 H43           -2.0805     2.3992     1.9705 H       
  44 H44           -5.4284     2.0519     3.5609 H       
  45 H45           -6.3551     2.5131     2.1129 H       
  46 H46           -5.5042     0.9505     2.1646 H       
  47 H47           -3.2749     4.5925     1.8979 H       
  48 H48           -5.0532     4.6399     1.9572 H       
  49 H49           -4.1265     4.1787     3.4052 H       
  50 H50           -4.3088     1.5314     0.0490 H       
  51 H51           -5.1597     3.0940    -0.0027 H       
  52 H52           -3.3814     3.0466    -0.0620 H       
@<TRIPOS>BOND
   1    1    2 ar
   2    1    6 ar
   3    1   27 1
   4    2    3 ar
   5    2   28 1
   6    3    4 ar
   7    3    7 ar
   8    4    5 ar
   9    4   10 ar
  10    5    6 ar
  11    5   29 1
  12    6   30 1
  13    7    8 ar
  14    7   11 1
  15    8    9 ar
  16    8   31 1
  17    9   10 ar
  18    9   32 1
  19   10   33 1
  20   11   12 1
  21   12   13 2
  22   12   14 1
  23   12   15 1
  24   14   17 1
  25   14   34 1
  26   15   16 1
  27   16   35 1
  28   16   36 1
  29   16   37 1
  30   17   18 1
  31   17   19 1
  32   17   38 1
  33   18   20 1
  34   18   21 2
  35   19   39 1
  36   19   40 1
  37   19   41 1
  38   20   22 1
  39   22   23 1
  40   22   42 1
  41   22   43 1
  42   23   24 1
  43   23   25 1
  44   23   26 1
  45   24   44 1
  46   24   45 1
  47   24   46 1
  48   25   47 1
  49   25   48 1
  50   25   49 1
  51   26   50 1
  52   26   51 1
  53   26   52 1

#	End of record

