#	Name: ASD02448053
#	Creating user name:	WinNT
#	Creation time:	15. 06. 2019 20:21

#	Modifying user name:	WinNT
#	Modification time:	15. 06. 2019 20:21

#	Program:	/corina/corina34_cracker 3.40 0067  02.08.2006

@<TRIPOS>MOLECULE
ASD02448053
  79   85    0    0    0
SMALL
NO_CHARGES


@<TRIPOS>ATOM
   1 C1            -0.0485    -6.5832     3.1350 C.ar    
   2 C2             0.4378    -5.4516     2.5091 C.ar    
   3 C3             0.3485    -5.3268     1.1286 C.ar    
   4 C4            -0.2295    -6.3395     0.3780 C.ar    
   5 C5            -0.7173    -7.4755     1.0092 C.ar    
   6 C6            -0.6250    -7.5943     2.3904 C.ar    
   7 N7            -1.3006    -8.4975     0.2569 N.am    
   8 C8            -1.4126    -9.9208     0.6017 C.3     
   9 C9            -2.1092   -10.6878    -0.4756 C.2     
  10 N10           -2.4927    -9.9536    -1.5296 N.am    
  11 S11           -2.0362    -8.3800    -1.2359 S.o2    
  12 O12           -2.3114   -11.8814    -0.4021 O.2     
  13 O13           -3.2266    -7.6227    -1.0664 O.2     
  14 O14           -1.0177    -8.0571    -2.1728 O.2     
  15 N15            0.8419    -4.1777     0.4947 N.pl3   
  16 C16            1.7723    -4.1405    -0.5094 C.2     
  17 C17            0.4815    -2.8942     0.7585 C.2     
  18 N18            1.1498    -2.0984    -0.0287 N.2     
  19 C19            1.9553    -2.8316    -0.8238 C.2     
  20 C20            2.8778    -2.3027    -1.8584 C.ar    
  21 C21            2.9674    -0.9283    -2.0795 C.ar    
  22 C22            3.6619    -3.1765    -2.6085 C.ar    
  23 C23            4.5190    -2.6795    -3.5695 C.ar    
  24 C24            4.6008    -1.3153    -3.7892 C.ar    
  25 C25            3.8281    -0.4416    -3.0434 C.ar    
  26 C26           -0.5262    -2.4615     1.7921 C.3     
  27 C27           -1.8702    -2.2754     1.1364 C.ar    
  28 C28           -2.7141    -3.3594     0.9749 C.ar    
  29 C29           -2.2577    -1.0202     0.7032 C.ar    
  30 C30           -3.4877    -0.8440     0.1024 C.ar    
  31 C31           -4.3394    -1.9335    -0.0679 C.ar    
  32 C32           -3.9460    -3.1947     0.3746 C.ar    
  33 C33           -5.6631    -1.7501    -0.7132 C.ar    
  34 C34           -6.5135    -2.8392    -0.8830 C.ar    
  35 C35           -6.0604    -0.4862    -1.1457 C.ar    
  36 C36           -7.2925    -0.3166    -1.7462 C.ar    
  37 C37           -8.1354    -1.3971    -1.9202 C.ar    
  38 C38           -7.7498    -2.6611    -1.4871 C.ar    
  39 Cl39           1.9984     0.1679    -1.1451 Cl      
  40 Cl40           5.6810    -0.6974    -4.9996 Cl      
  41 S41           -8.8280    -4.0366    -1.7109 S.3     
  42 C42          -10.2688    -3.2970    -2.5282 C.3     
  43 C43          -11.3152    -4.3806    -2.7959 C.3     
  44 C44          -12.5121    -3.7662    -3.4749 C.ar    
  45 C45          -12.5653    -3.6992    -4.8546 C.ar    
  46 C46          -13.5594    -3.2747    -2.7181 C.ar    
  47 C47          -14.6573    -2.7111    -3.3409 C.ar    
  48 C48          -14.7077    -2.6386    -4.7204 C.ar    
  49 C49          -13.6632    -3.1355    -5.4774 C.ar    
  50 H50            0.0262    -6.6797     4.2081 H       
  51 H51            0.8876    -4.6630     3.0940 H       
  52 H52           -0.3003    -6.2444    -0.6955 H       
  53 H53           -1.0042    -8.4777     2.8825 H       
  54 H54           -0.4138   -10.3331     0.7447 H       
  55 H55           -1.9741   -10.0199     1.5306 H       
  56 H56           -2.9546   -10.2792    -2.3179 H       
  57 H57            2.2654    -4.9875    -0.9631 H       
  58 H58            3.5994    -4.2411    -2.4380 H       
  59 H59            5.1273    -3.3565    -4.1510 H       
  60 H60            3.8955     0.6220    -3.2186 H       
  61 H61           -0.6024    -3.2244     2.5669 H       
  62 H62           -0.2066    -1.5202     2.2393 H       
  63 H63           -2.4084    -4.3364     1.3189 H       
  64 H64           -1.5967    -0.1764     0.8357 H       
  65 H65           -3.7896     0.1366    -0.2348 H       
  66 H66           -4.6023    -4.0426     0.2451 H       
  67 H67           -6.2117    -3.8199    -0.5457 H       
  68 H68           -5.4045     0.3612    -1.0109 H       
  69 H69           -7.5980     0.6639    -2.0805 H       
  70 H70           -9.0982    -1.2590    -2.3897 H       
  71 H71          -10.6974    -2.5292    -1.8841 H       
  72 H72           -9.9603    -2.8485    -3.4725 H       
  73 H73          -10.8866    -5.1484    -3.4400 H       
  74 H74          -11.6237    -4.8291    -1.8516 H       
  75 H75          -11.7490    -4.0868    -5.4459 H       
  76 H76          -13.5199    -3.3314    -1.6403 H       
  77 H77          -15.4757    -2.3278    -2.7497 H       
  78 H78          -15.5657    -2.1986    -5.2070 H       
  79 H79          -13.7027    -3.0789    -6.5552 H       
@<TRIPOS>BOND
   1    1    2 ar
   2    1    6 ar
   3    1   50 1
   4    2    3 ar
   5    2   51 1
   6    3    4 ar
   7    3   15 1
   8    4    5 ar
   9    4   52 1
  10    5    6 ar
  11    5    7 1
  12    6   53 1
  13    7    8 1
  14    7   11 am
  15    8    9 1
  16    8   54 1
  17    8   55 1
  18    9   10 am
  19    9   12 2
  20   10   11 am
  21   10   56 1
  22   11   13 2
  23   11   14 2
  24   15   16 1
  25   15   17 1
  26   16   19 2
  27   16   57 1
  28   17   18 2
  29   17   26 1
  30   18   19 1
  31   19   20 1
  32   20   21 ar
  33   20   22 ar
  34   21   39 1
  35   21   25 ar
  36   22   23 ar
  37   22   58 1
  38   23   24 ar
  39   23   59 1
  40   24   25 ar
  41   24   40 1
  42   25   60 1
  43   26   27 1
  44   26   61 1
  45   26   62 1
  46   27   28 ar
  47   27   29 ar
  48   28   32 ar
  49   28   63 1
  50   29   30 ar
  51   29   64 1
  52   30   31 ar
  53   30   65 1
  54   31   32 ar
  55   31   33 1
  56   32   66 1
  57   33   34 ar
  58   33   35 ar
  59   34   38 ar
  60   34   67 1
  61   35   36 ar
  62   35   68 1
  63   36   37 ar
  64   36   69 1
  65   37   38 ar
  66   37   70 1
  67   38   41 1
  68   41   42 1
  69   42   43 1
  70   42   71 1
  71   42   72 1
  72   43   44 1
  73   43   73 1
  74   43   74 1
  75   44   45 ar
  76   44   46 ar
  77   45   49 ar
  78   45   75 1
  79   46   47 ar
  80   46   76 1
  81   47   48 ar
  82   47   77 1
  83   48   49 ar
  84   48   78 1
  85   49   79 1

#	End of record

