#	Name: ASD01150308
#	Creating user name:	WinNT
#	Creation time:	15. 06. 2019 19:04

#	Modifying user name:	WinNT
#	Modification time:	15. 06. 2019 19:04

#	Program:	/corina/corina34_cracker 3.40 0067  02.08.2006

@<TRIPOS>MOLECULE
ASD01150308
  69   72    0    0    0
SMALL
NO_CHARGES


@<TRIPOS>ATOM
   1 N1            -0.0169     1.3927     0.0097 N.pl3   
   2 C2             0.0021    -0.0041     0.0020 C.2     
   3 C3            -1.3281    -0.4051     0.0126 C.2     
   4 N4            -2.0858     0.6950     0.0257 N.2     
   5 C5            -1.3234     1.7683     0.0301 C.2     
   6 C6             1.1389    -0.8368    -0.0137 C.2     
   7 C7             1.0964     2.2430     0.0036 C.ar    
   8 C8             1.3307     3.0747    -1.0833 C.ar    
   9 C9             2.4290     3.9122    -1.0861 C.ar    
  10 C10            3.2950     3.9227    -0.0081 C.ar    
  11 C11            3.0647     3.0953     1.0756 C.ar    
  12 C12            1.9648     2.2600     1.0870 C.ar    
  13 N13           -1.7777     3.0669     0.0439 N.3     
  14 C14           -3.2460     3.1108     0.0526 C.3     
  15 C15           -1.2221     3.8069     1.1848 C.3     
  16 O16            1.0069    -2.0474    -0.0189 O.2     
  17 O17            2.3747    -0.2923    -0.0230 O.3     
  18 C18            3.4817    -1.1958    -0.0388 C.3     
  19 C19            3.4083    -2.0704    -1.2921 C.3     
  20 C20            4.7889    -0.4008    -0.0475 C.3     
  21 C21            3.4331    -2.0838     1.2062 C.3     
  22 C22           -3.6005    -3.3566     0.0170 C.2     
  23 C23           -2.8050    -4.5249     0.0028 C.2     
  24 N24           -3.6024    -5.5575     0.0099 N.2     
  25 N25           -4.9273    -5.1076     0.0287 N.pl3   
  26 C26           -4.9204    -3.7622     0.0330 C.2     
  27 C27           -6.0686    -5.9210     0.0403 C.ar    
  28 C28           -6.0726    -7.1239    -0.6531 C.ar    
  29 C29           -7.1988    -7.9233    -0.6399 C.ar    
  30 C30           -8.3216    -7.5268     0.0631 C.ar    
  31 C31           -8.3207    -6.3293     0.7547 C.ar    
  32 C32           -7.1956    -5.5283     0.7499 C.ar    
  33 C33           -9.5490    -8.4011     0.0751 C.3     
  34 N34           -1.7882    -1.7165     0.0092 N.am    
  35 C35           -3.1126    -1.9660     0.0206 C.2     
  36 O36           -3.9050    -1.0437     0.0338 O.2     
  37 C37           -6.1301    -2.8637     0.0527 C.3     
  38 F38           -6.4861    -2.5899     1.3777 F       
  39 F39           -5.8324    -1.6665    -0.6071 F       
  40 F40           -7.1946    -3.5004    -0.5942 F       
  41 H41            0.6551     3.0664    -1.9258 H       
  42 H42            2.6117     4.5593    -1.9312 H       
  43 H43            4.1533     4.5782    -0.0128 H       
  44 H44            3.7431     3.1054     1.9159 H       
  45 H45            1.7854     1.6140     1.9337 H       
  46 H46           -3.6195     2.6004     0.9404 H       
  47 H47           -3.5784     4.1488     0.0634 H       
  48 H48           -3.6297     2.6157    -0.8395 H       
  49 H49           -0.1344     3.8180     1.1157 H       
  50 H50           -1.5974     4.8302     1.1716 H       
  51 H51           -1.5223     3.3218     2.1135 H       
  52 H52            3.4430    -1.4378    -2.1791 H       
  53 H53            4.2527    -2.7596    -1.3042 H       
  54 H54            2.4771    -2.6368    -1.2859 H       
  55 H55            4.8411     0.2222     0.8454 H       
  56 H56            5.6332    -1.0900    -0.0596 H       
  57 H57            4.8235     0.2318    -0.9345 H       
  58 H58            2.5018    -2.6502     1.2124 H       
  59 H59            4.2774    -2.7730     1.1941 H       
  60 H60            3.4853    -1.4607     2.0991 H       
  61 H61           -1.7256    -4.5571    -0.0114 H       
  62 H62           -5.1960    -7.4340    -1.2026 H       
  63 H63           -7.2026    -8.8589    -1.1794 H       
  64 H64           -9.1993    -6.0221     1.3025 H       
  65 H65           -7.1954    -4.5933     1.2905 H       
  66 H66           -9.4924    -9.0952     0.9136 H       
  67 H67          -10.4377    -7.7785     0.1781 H       
  68 H68           -9.6046    -8.9621    -0.8578 H       
  69 H69           -1.1562    -2.4522    -0.0013 H       
@<TRIPOS>BOND
   1    1    2 1
   2    1    7 1
   3    1    5 1
   4    2    3 2
   5    2    6 1
   6    3    4 1
   7    3   34 1
   8    4    5 2
   9    5   13 1
  10    6   16 2
  11    6   17 1
  12    7    8 ar
  13    7   12 ar
  14    8    9 ar
  15    8   41 1
  16    9   10 ar
  17    9   42 1
  18   10   11 ar
  19   10   43 1
  20   11   12 ar
  21   11   44 1
  22   12   45 1
  23   13   14 1
  24   13   15 1
  25   14   46 1
  26   14   47 1
  27   14   48 1
  28   15   49 1
  29   15   50 1
  30   15   51 1
  31   17   18 1
  32   18   19 1
  33   18   20 1
  34   18   21 1
  35   19   52 1
  36   19   53 1
  37   19   54 1
  38   20   55 1
  39   20   56 1
  40   20   57 1
  41   21   58 1
  42   21   59 1
  43   21   60 1
  44   22   23 1
  45   22   26 2
  46   22   35 1
  47   23   24 2
  48   23   61 1
  49   24   25 1
  50   25   26 1
  51   25   27 1
  52   26   37 1
  53   27   28 ar
  54   27   32 ar
  55   28   29 ar
  56   28   62 1
  57   29   30 ar
  58   29   63 1
  59   30   31 ar
  60   30   33 1
  61   31   32 ar
  62   31   64 1
  63   32   65 1
  64   33   66 1
  65   33   67 1
  66   33   68 1
  67   34   35 am
  68   34   69 1
  69   35   36 2
  70   37   38 1
  71   37   39 1
  72   37   40 1

#	End of record

