#	Name: ASD01911484
#	Creating user name:	WinNT
#	Creation time:	15. 06. 2019 19:57

#	Modifying user name:	WinNT
#	Modification time:	15. 06. 2019 19:57

#	Program:	/corina/corina34_cracker 3.40 0067  02.08.2006

@<TRIPOS>MOLECULE
ASD01911484
  31   33    0    0    0
SMALL
NO_CHARGES


@<TRIPOS>ATOM
   1 C1             0.0285     1.4252     0.0751 C.3     
   2 C2             0.3115    -0.0798     0.0579 C.3     
   3 C3             1.1104    -0.4159    -1.2050 C.3     
   4 C4             2.4670     0.2888    -1.1809 C.3     
   5 C5             2.2609     1.8104    -1.1723 C.3     
   6 N6             1.3227     2.1207    -0.0840 N.am    
   7 C7             1.4793     2.9861     0.9188 C.2     
   8 N8             0.5400     2.8821     1.8712 N.am    
   9 C9            -0.4485     1.8690     1.4671 C.3     
  10 O10            2.3879     3.7926     0.9658 O.2     
  11 C11            0.5058     3.6166     3.0557 C.ar    
  12 C12            1.6162     4.3620     3.4361 C.ar    
  13 C13            1.5692     5.0864     4.6138 C.ar    
  14 C14            0.4078     5.0402     5.3741 C.ar    
  15 C15           -0.6575     4.2785     4.9354 C.ar    
  16 N16           -0.5852     3.6022     3.8047 N.ar    
  17 I17            0.2735     6.1142     7.1679 I       
  18 H18           -0.6747     1.7057    -0.7091 H       
  19 H19            0.8904    -0.3530     0.9402 H       
  20 H20           -0.6302    -0.6287     0.0516 H       
  21 H21            1.2649    -1.4936    -1.2578 H       
  22 H22            0.5511    -0.0913    -2.0825 H       
  23 H23            3.0139    -0.0081    -0.2859 H       
  24 H24            3.0385     0.0053    -2.0647 H       
  25 H25            3.2123     2.3122    -0.9956 H       
  26 H26            1.8423     2.1331    -2.1256 H       
  27 H27           -1.4444     2.3080     1.4085 H       
  28 H28           -0.4401     1.0281     2.1607 H       
  29 H29            2.5036     4.3749     2.8207 H       
  30 H30            2.4165     5.6741     4.9349 H       
  31 H31           -1.5628     4.2393     5.5230 H       
@<TRIPOS>BOND
   1    1    2 1
   2    1    6 1
   3    1    9 1
   4    1   18 1
   5    2    3 1
   6    2   19 1
   7    2   20 1
   8    3    4 1
   9    3   21 1
  10    3   22 1
  11    4    5 1
  12    4   23 1
  13    4   24 1
  14    5    6 1
  15    5   25 1
  16    5   26 1
  17    6    7 am
  18    7    8 am
  19    7   10 2
  20    8    9 1
  21    8   11 1
  22    9   27 1
  23    9   28 1
  24   11   12 ar
  25   11   16 ar
  26   12   13 ar
  27   12   29 1
  28   13   14 ar
  29   13   30 1
  30   14   15 ar
  31   14   17 1
  32   15   16 ar
  33   15   31 1

#	End of record

