#	Name: ASD02560310
#	Creating user name:	WinNT
#	Creation time:	15. 06. 2019 20:25

#	Modifying user name:	WinNT
#	Modification time:	15. 06. 2019 20:25

#	Program:	/corina/corina34_cracker 3.40 0067  02.08.2006

@<TRIPOS>MOLECULE
ASD02560310
  36   38    0    0    0
SMALL
NO_CHARGES


@<TRIPOS>ATOM
   1 C1            -0.0093     1.3381     0.0878 C.2     
   2 O2            -0.0095     0.0042    -0.1012 O.3     
   3 C3            -1.2759    -0.4057     0.0989 C.2     
   4 N4            -1.9861     0.6556     0.3941 N.2     
   5 N5            -1.2237     1.6920     0.3915 N.2     
   6 N6            -1.7414    -1.7055     0.0091 N.pl3   
   7 C7             1.1827     2.2532    -0.0255 C.3     
   8 C8             0.9253     3.2834    -1.0948 C.ar    
   9 C9             1.7632     3.3658    -2.1923 C.ar    
  10 C10            1.5260     4.3115    -3.1740 C.ar    
  11 C11            0.4521     5.1740    -3.0581 C.ar    
  12 C12           -0.3852     5.0925    -1.9614 C.ar    
  13 C13           -0.1524     4.1433    -0.9819 C.ar    
  14 C14           -3.1099    -1.9676     0.1264 C.ar    
  15 C15           -4.0377    -1.0110    -0.2654 C.ar    
  16 C16           -5.3887    -1.2728    -0.1489 C.ar    
  17 C17           -5.8184    -2.4868     0.3575 C.ar    
  18 C18           -4.8963    -3.4418     0.7486 C.ar    
  19 C19           -3.5441    -3.1874     0.6294 C.ar    
  20 Cl20           3.1124     2.2831    -2.3377 Cl      
  21 Cl21          -1.2045     4.0407     0.3951 Cl      
  22 Cl22          -7.5174    -2.8123     0.5031 Cl      
  23 C23            1.4157     2.9554     1.3138 C.3     
  24 O24            1.7743     1.9882     2.3027 O.3     
  25 H25           -1.1185    -2.4349    -0.1352 H       
  26 H26            2.0651     1.6696    -0.2881 H       
  27 H27            2.1804     4.3762    -4.0307 H       
  28 H28            0.2674     5.9120    -3.8246 H       
  29 H29           -1.2238     5.7670    -1.8711 H       
  30 H30           -3.7029    -0.0632    -0.6604 H       
  31 H31           -6.1105    -0.5292    -0.4530 H       
  32 H32           -5.2344    -4.3883     1.1438 H       
  33 H33           -2.8249    -3.9331     0.9344 H       
  34 H34            2.2210     3.6822     1.2076 H       
  35 H35            0.5029     3.4666     1.6196 H       
  36 H36            1.9373     2.3634     3.1789 H       
@<TRIPOS>BOND
   1    1    2 1
   2    1    7 1
   3    1    5 2
   4    2    3 1
   5    3    4 2
   6    3    6 1
   7    4    5 1
   8    6   14 1
   9    6   25 1
  10    7    8 1
  11    7   23 1
  12    7   26 1
  13    8    9 ar
  14    8   13 ar
  15    9   10 ar
  16    9   20 1
  17   10   11 ar
  18   10   27 1
  19   11   12 ar
  20   11   28 1
  21   12   13 ar
  22   12   29 1
  23   13   21 1
  24   14   15 ar
  25   14   19 ar
  26   15   16 ar
  27   15   30 1
  28   16   17 ar
  29   16   31 1
  30   17   18 ar
  31   17   22 1
  32   18   19 ar
  33   18   32 1
  34   19   33 1
  35   23   24 1
  36   23   34 1
  37   23   35 1
  38   24   36 1

#	End of record

