#	Name: ASD03490052
#	Creating user name:	WinNT
#	Creation time:	15. 06. 2019 20:42

#	Modifying user name:	WinNT
#	Modification time:	15. 06. 2019 20:42

#	Program:	/corina/corina34_cracker 3.40 0067  02.08.2006

@<TRIPOS>MOLECULE
ASD03490052
  60   60    0    0    0
SMALL
NO_CHARGES


@<TRIPOS>ATOM
   1 O1             0.4966     1.1242     0.6912 O.3     
   2 C2             0.4564    -0.2163     0.6359 C.2     
   3 C3            -0.8630    -0.9241     0.4642 C.3     
   4 O4             1.4779    -0.8555     0.7239 O.2     
   5 O5            -0.6611    -2.3361     0.5510 O.3     
   6 C6            -1.8288    -0.4778     1.5650 C.3     
   7 O7            -1.4153    -0.5993    -0.8131 O.3     
   8 C8            -2.6614    -1.2416    -1.0903 C.3     
   9 C9            -3.6996    -0.8079    -0.0522 C.3     
  10 C10           -3.1855    -1.1553     1.3486 C.3     
  11 C11           -3.1405    -0.8441    -2.4879 C.3     
  12 C12           -4.4089    -1.6266    -2.8340 C.3     
  13 C13           -4.9539    -1.1451    -4.1801 C.3     
  14 O14           -3.9313    -1.2494    -5.1729 O.3     
  15 O15           -4.1017    -3.0199    -2.9154 O.3     
  16 C16           -3.9250     0.7020    -0.1544 C.3     
  17 O17           -4.7625     1.1324     0.9204 O.3     
  18 O18           -3.0367    -2.5717     1.4656 O.3     
  19 P19           -4.9673    -4.1537    -2.1688 P.3     
  20 S20           -5.2967    -3.6273    -0.4118 S.2     
  21 N21           -4.5708     1.0139    -1.4318 N.am    
  22 O22           -3.3218     2.8281    -1.6976 O.2     
  23 C23           -4.1948     2.1047    -2.1284 C.2     
  24 C24           -4.8591     2.4256    -3.4424 C.3     
  25 O25           -6.3662    -4.3555    -2.9399 O.3     
  26 C26           -8.6397    -5.0575    -3.3626 C.3     
  27 C27           -7.4770    -5.0491    -2.3681 C.3     
  28 O28           -4.1494    -5.5404    -2.1693 O.3     
  29 C29           -3.5149    -7.7970    -1.5810 C.3     
  30 C30           -4.4906    -6.6455    -1.3299 C.3     
  31 H31            1.3659     1.5331     0.8022 H       
  32 H32           -0.1215    -2.7009    -0.1637 H       
  33 H33           -1.4297    -0.7644     2.5380 H       
  34 H34           -1.9516     0.6045     1.5250 H       
  35 H35           -2.5311    -2.3228    -1.0444 H       
  36 H36           -4.6384    -1.3305    -0.2355 H       
  37 H37           -3.8944    -0.7988     2.0959 H       
  38 H38           -3.3558     0.2242    -2.5080 H       
  39 H39           -2.3628    -1.0718    -3.2170 H       
  40 H40           -5.1585    -1.4645    -2.0595 H       
  41 H41           -5.8050    -1.7616    -4.4690 H       
  42 H42           -5.2709    -0.1059    -4.0929 H       
  43 H43           -4.2072    -0.9604    -6.0535 H       
  44 H44           -2.9662     1.2172    -0.0966 H       
  45 H45           -5.6048     0.6606     0.9760 H       
  46 H46           -2.7138    -2.8633     2.3292 H       
  47 H47           -5.2690     0.4354    -1.7763 H       
  48 H48           -5.7262     3.0620    -3.2653 H       
  49 H49           -4.1526     2.9458    -4.0892 H       
  50 H50           -5.1791     1.5012    -3.9231 H       
  51 H51           -9.4870    -5.5866    -2.9264 H       
  52 H52           -8.9301    -4.0320    -3.5907 H       
  53 H53           -8.3303    -5.5599    -4.2791 H       
  54 H54           -7.1866    -6.0747    -2.1400 H       
  55 H55           -7.7864    -4.5467    -1.4516 H       
  56 H56           -2.5002    -7.4691    -1.3554 H       
  57 H57           -3.7752    -8.6399    -0.9408 H       
  58 H58           -3.5743    -8.1023    -2.6257 H       
  59 H59           -4.4312    -6.3402    -0.2853 H       
  60 H60           -5.5053    -6.9734    -1.5555 H       
@<TRIPOS>BOND
   1    1    2 1
   2    1   31 1
   3    2    3 1
   4    2    4 2
   5    3    5 1
   6    3    6 1
   7    3    7 1
   8    5   32 1
   9    6   10 1
  10    6   33 1
  11    6   34 1
  12    7    8 1
  13    8    9 1
  14    8   11 1
  15    8   35 1
  16    9   10 1
  17    9   16 1
  18    9   36 1
  19   10   18 1
  20   10   37 1
  21   11   12 1
  22   11   38 1
  23   11   39 1
  24   12   13 1
  25   12   15 1
  26   12   40 1
  27   13   14 1
  28   13   41 1
  29   13   42 1
  30   14   43 1
  31   15   19 1
  32   16   17 1
  33   16   21 1
  34   16   44 1
  35   17   45 1
  36   18   46 1
  37   19   20 2
  38   19   25 1
  39   19   28 1
  40   21   23 am
  41   21   47 1
  42   22   23 2
  43   23   24 1
  44   24   48 1
  45   24   49 1
  46   24   50 1
  47   25   27 1
  48   26   27 1
  49   26   51 1
  50   26   52 1
  51   26   53 1
  52   27   54 1
  53   27   55 1
  54   28   30 1
  55   29   30 1
  56   29   56 1
  57   29   57 1
  58   29   58 1
  59   30   59 1
  60   30   60 1

#	End of record

