#	Name: ASD01940224
#	Creating user name:	WinNT
#	Creation time:	15. 06. 2019 20:12

#	Modifying user name:	WinNT
#	Modification time:	15. 06. 2019 20:12

#	Program:	/corina/corina34_cracker 3.40 0067  02.08.2006

@<TRIPOS>MOLECULE
ASD01940224
  41   43    0    0    0
SMALL
NO_CHARGES


@<TRIPOS>ATOM
   1 O1             0.2300     0.4283     0.0232 O.3     
   2 N2             0.4839    -0.7540     0.0329 N.2     
   3 C3             1.7674    -0.9688     0.0046 C.2     
   4 C4             2.3843     0.3030    -0.0274 C.2     
   5 C5             1.3449     1.1714    -0.0138 C.2     
   6 S6             4.1065     0.6727    -0.0732 S.o2    
   7 O7             4.2490     1.9861     0.4501 O.2     
   8 O8             4.7741    -0.4575     0.4710 O.2     
   9 N9             4.5481     0.7539    -1.6672 N.am    
  10 C10            1.4260     2.6760    -0.0366 C.3     
  11 C11            2.4589    -2.3078     0.0062 C.3     
  12 C12            4.0458     1.7773    -2.4821 C.ar    
  13 C13            3.7518     1.5231    -3.8212 C.ar    
  14 C14            3.2539     2.5404    -4.6237 C.ar    
  15 C15            3.0508     3.8044    -4.0922 C.ar    
  16 C16            3.3439     4.0543    -2.7628 C.ar    
  17 C17            3.8348     3.0429    -1.9570 C.ar    
  18 N18            3.9588     0.2439    -4.3556 N.pl3   
  19 C19            3.9876     0.0615    -5.7417 C.ar    
  20 C20            5.0988     0.4657    -6.4753 C.ar    
  21 C21            5.1234     0.2832    -7.8452 C.ar    
  22 C22            4.0445    -0.3003    -8.4860 C.ar    
  23 C23            2.9390    -0.7023    -7.7589 C.ar    
  24 C24            2.9102    -0.5285    -6.3884 C.ar    
  25 I25            4.0857    -0.5745   -10.5626 I       
  26 F26            6.1516     1.0361    -5.8497 F       
  27 F27            2.5663     4.7944    -4.8734 F       
  28 F28            2.9680     2.2989    -5.9219 F       
  29 H29            5.1545     0.0932    -2.0368 H       
  30 H30            0.4196     3.0944    -0.0179 H       
  31 H31            1.9801     3.0233     0.8354 H       
  32 H32            1.9368     2.9986    -0.9438 H       
  33 H33            2.6011    -2.6445    -1.0207 H       
  34 H34            3.4284    -2.2154     0.4957 H       
  35 H35            1.8475    -3.0318     0.5446 H       
  36 H36            3.1849     5.0406    -2.3525 H       
  37 H37            4.0578     3.2404    -0.9189 H       
  38 H38            4.0820    -0.5148    -3.7639 H       
  39 H39            5.9852     0.5964    -8.4160 H       
  40 H40            2.0986    -1.1566    -8.2625 H       
  41 H41            2.0480    -0.8470    -5.8213 H       
@<TRIPOS>BOND
   1    1    2 1
   2    1    5 1
   3    2    3 2
   4    3    4 1
   5    3   11 1
   6    4    5 2
   7    4    6 1
   8    5   10 1
   9    6    7 2
  10    6    8 2
  11    6    9 am
  12    9   12 1
  13    9   29 1
  14   10   30 1
  15   10   31 1
  16   10   32 1
  17   11   33 1
  18   11   34 1
  19   11   35 1
  20   12   13 ar
  21   12   17 ar
  22   13   14 ar
  23   13   18 1
  24   14   15 ar
  25   14   28 1
  26   15   16 ar
  27   15   27 1
  28   16   17 ar
  29   16   36 1
  30   17   37 1
  31   18   19 1
  32   18   38 1
  33   19   20 ar
  34   19   24 ar
  35   20   21 ar
  36   20   26 1
  37   21   22 ar
  38   21   39 1
  39   22   23 ar
  40   22   25 1
  41   23   24 ar
  42   23   40 1
  43   24   41 1

#	End of record

