#	Name: ASD01914871
#	Creating user name:	WinNT
#	Creation time:	15. 06. 2019 20:04

#	Modifying user name:	WinNT
#	Modification time:	15. 06. 2019 20:04

#	Program:	/corina/corina34_cracker 3.40 0067  02.08.2006

@<TRIPOS>MOLECULE
ASD01914871
  48   50    0    0    0
SMALL
NO_CHARGES


@<TRIPOS>ATOM
   1 C1             0.6194     1.2663    -0.9702 C.ar    
   2 C2             0.6092    -0.0913    -0.6316 C.ar    
   3 C3             1.6412    -0.9164    -1.1119 C.ar    
   4 N4             2.6024    -0.4127    -1.8696 N.ar    
   5 C5             2.6296     0.8642    -2.1996 C.ar    
   6 C6             1.6493     1.7378    -1.7659 C.ar    
   7 N7             1.6524    -2.2625    -0.7902 N.3     
   8 C8             0.3981    -2.9104    -1.1940 C.3     
   9 C9             2.8010    -2.9435    -1.4100 C.3     
  10 C10            2.9483    -4.3274    -0.7726 C.3     
  11 C11            1.6184    -5.0285    -0.7704 C.2     
  12 C12            0.4781    -4.3911    -0.9561 C.2     
  13 C13            1.5872    -6.4826    -0.5531 C.2     
  14 N14            0.4272    -7.1577    -0.6763 N.am    
  15 O15            2.6082    -7.0761    -0.2621 O.2     
  16 C16            0.4258    -8.5558    -0.6515 C.ar    
  17 C17           -0.6109    -9.2615    -1.2485 C.ar    
  18 C18           -0.6090   -10.6423    -1.2225 C.ar    
  19 C19            0.4233   -11.3223    -0.6027 C.ar    
  20 C20            1.4570   -10.6227    -0.0074 C.ar    
  21 C21            1.4641    -9.2419    -0.0347 C.ar    
  22 C22            0.4216   -12.8291    -0.5755 C.3     
  23 C23           -0.4330    -0.6303     0.1893 C.1     
  24 N24           -1.2598    -1.0578     0.8406 N.1     
  25 C25            3.9572    -5.1523    -1.5743 C.3     
  26 C26            5.3606    -4.5767    -1.3736 C.3     
  27 H27           -0.1594     1.9290    -0.6230 H       
  28 H28            3.4324     1.2342    -2.8201 H       
  29 H29            1.6870     2.7803    -2.0456 H       
  30 H30           -0.4258    -2.4955    -0.6134 H       
  31 H31            0.2202    -2.7241    -2.2531 H       
  32 H32            2.6291    -3.0501    -2.4810 H       
  33 H33            3.7072    -2.3628    -1.2379 H       
  34 H34            3.3027    -4.2188     0.2524 H       
  35 H35           -0.4397    -4.9601    -0.9358 H       
  36 H36           -0.4067    -6.6737    -0.7823 H       
  37 H37           -1.4178    -8.7310    -1.7321 H       
  38 H38           -1.4148   -11.1917    -1.6866 H       
  39 H39            2.2616   -11.1568     0.4762 H       
  40 H40            2.2716    -8.6961     0.4304 H       
  41 H41            0.9421   -13.2089    -1.4546 H       
  42 H42            0.9279   -13.1768     0.3250 H       
  43 H43           -0.6064   -13.1913    -0.5771 H       
  44 H44            3.9360    -6.1864    -1.2304 H       
  45 H45            3.6974    -5.1158    -2.6322 H       
  46 H46            5.3673    -3.5260    -1.6636 H       
  47 H47            5.6433    -4.6660    -0.3247 H       
  48 H48            6.0709    -5.1282    -1.9896 H       
@<TRIPOS>BOND
   1    1    2 ar
   2    1    6 ar
   3    1   27 1
   4    2    3 ar
   5    2   23 1
   6    3    4 ar
   7    3    7 1
   8    4    5 ar
   9    5    6 ar
  10    5   28 1
  11    6   29 1
  12    7    8 1
  13    7    9 1
  14    8   12 1
  15    8   30 1
  16    8   31 1
  17    9   10 1
  18    9   32 1
  19    9   33 1
  20   10   11 1
  21   10   25 1
  22   10   34 1
  23   11   12 2
  24   11   13 1
  25   12   35 1
  26   13   14 am
  27   13   15 2
  28   14   16 1
  29   14   36 1
  30   16   17 ar
  31   16   21 ar
  32   17   18 ar
  33   17   37 1
  34   18   19 ar
  35   18   38 1
  36   19   20 ar
  37   19   22 1
  38   20   21 ar
  39   20   39 1
  40   21   40 1
  41   22   41 1
  42   22   42 1
  43   22   43 1
  44   23   24 3
  45   25   26 1
  46   25   44 1
  47   25   45 1
  48   26   46 1
  49   26   47 1
  50   26   48 1

#	End of record

