#	Name: ASD01120095
#	Creating user name:	WinNT
#	Creation time:	15. 06. 2019 18:58

#	Modifying user name:	WinNT
#	Modification time:	15. 06. 2019 18:58

#	Program:	/corina/corina34_cracker 3.40 0067  02.08.2006

@<TRIPOS>MOLECULE
ASD01120095
  43   47    0    0    0
SMALL
NO_CHARGES


@<TRIPOS>ATOM
   1 C1            -0.0933     1.3487     0.6477 C.ar    
   2 C2            -0.0548    -0.0400     0.4636 C.ar    
   3 C3            -1.1887    -0.7297     0.0872 C.ar    
   4 C4            -2.3882    -0.0372    -0.1106 C.ar    
   5 C5            -2.4200     1.3666     0.0796 C.ar    
   6 C6            -1.2562     2.0441     0.4588 C.ar    
   7 N7            -3.5172    -0.6638    -0.4774 N.ar    
   8 C8            -4.6261     0.0138    -0.6560 C.ar    
   9 N9            -4.7031     1.3247    -0.4902 N.ar    
  10 C10           -3.6468     2.0409    -0.1281 C.ar    
  11 N11           -3.7419     3.4076     0.0422 N.pl3   
  12 C12           -4.9853     4.0391    -0.0538 C.ar    
  13 C13           -6.1335     3.3753     0.3512 C.ar    
  14 C14           -7.3699     4.0088     0.2542 C.ar    
  15 C15           -7.4465     5.3063    -0.2495 C.ar    
  16 C16           -6.2986     5.9604    -0.6511 C.ar    
  17 C17           -5.0707     5.3349    -0.5499 C.ar    
  18 C18           -8.6024     3.3044     0.6851 C.2     
  19 C19           -9.8281     3.8620     0.6167 C.2     
  20 S20          -10.9914     2.6871     1.2250 S.3     
  21 C21           -9.7315     1.5682     1.5110 C.2     
  22 N22           -8.5963     2.0696     1.1661 N.2     
  23 C23           -9.9227     0.1862     2.0807 C.3     
  24 O24            1.0283     2.0307     1.0124 O.3     
  25 C25            2.1021     1.2583     1.5593 C.3     
  26 C26            2.3133     0.0284     0.6663 C.3     
  27 O27            1.1010    -0.7324     0.6565 O.3     
  28 H28           -1.1505    -1.7997    -0.0546 H       
  29 H29           -1.2768     3.1138     0.6061 H       
  30 H30           -5.5160    -0.5218    -0.9519 H       
  31 H31           -2.9458     3.9297     0.2284 H       
  32 H32           -6.0691     2.3699     0.7405 H       
  33 H33           -8.4039     5.8000    -0.3259 H       
  34 H34           -6.3603     6.9654    -1.0417 H       
  35 H35           -4.1758     5.8510    -0.8651 H       
  36 H36          -10.0562     4.8531     0.2534 H       
  37 H37          -10.9814     0.0178     2.2779 H       
  38 H38           -9.5641    -0.5544     1.3658 H       
  39 H39           -9.3610     0.0955     3.0104 H       
  40 H40            3.0123     1.8577     1.5806 H       
  41 H41            1.8477     0.9393     2.5700 H       
  42 H42            2.5552     0.3474    -0.3475 H       
  43 H43            3.1256    -0.5797     1.0645 H       
@<TRIPOS>BOND
   1    1    2 ar
   2    1   24 1
   3    1    6 ar
   4    2    3 ar
   5    2   27 1
   6    3    4 ar
   7    3   28 1
   8    4    5 ar
   9    4    7 ar
  10    5    6 ar
  11    5   10 ar
  12    6   29 1
  13    7    8 ar
  14    8    9 ar
  15    8   30 1
  16    9   10 ar
  17   10   11 1
  18   11   12 1
  19   11   31 1
  20   12   13 ar
  21   12   17 ar
  22   13   14 ar
  23   13   32 1
  24   14   15 ar
  25   14   18 1
  26   15   16 ar
  27   15   33 1
  28   16   17 ar
  29   16   34 1
  30   17   35 1
  31   18   19 2
  32   18   22 1
  33   19   20 1
  34   19   36 1
  35   20   21 1
  36   21   22 2
  37   21   23 1
  38   23   37 1
  39   23   38 1
  40   23   39 1
  41   24   25 1
  42   25   26 1
  43   25   40 1
  44   25   41 1
  45   26   27 1
  46   26   42 1
  47   26   43 1

#	End of record

