#	Name: ASD01914332
#	Creating user name:	WinNT
#	Creation time:	15. 06. 2019 20:03

#	Modifying user name:	WinNT
#	Modification time:	15. 06. 2019 20:03

#	Program:	/corina/corina34_cracker 3.40 0067  02.08.2006

@<TRIPOS>MOLECULE
ASD01914332
  38   41    0    0    0
SMALL
NO_CHARGES


@<TRIPOS>ATOM
   1 C1             0.0267     1.0196     0.9937 C.2     
   2 N2             0.0116    -0.0744     0.2203 N.2     
   3 C3            -1.2325    -0.4673     0.0472 C.2     
   4 N4            -2.0546     0.3979     0.7294 N.am    
   5 C5            -1.2415     1.3298     1.3271 C.2     
   6 C6            -3.3855     0.2145     0.7115 C.2     
   7 N7            -3.9430    -0.8052     0.0366 N.am    
   8 C8            -5.3364    -0.9531     0.0497 C.ar    
   9 C9             1.2581     1.7741     1.4245 C.3     
  10 O10            0.8761     2.8821     2.2420 O.3     
  11 C11            1.8733     3.6703     2.7164 C.ar    
  12 C12            1.5650     4.7627     3.5165 C.ar    
  13 C13            2.5917     5.5589     3.9941 C.ar    
  14 C14            3.8965     5.2320     3.6524 C.ar    
  15 C15            4.1297     4.1309     2.8524 C.ar    
  16 N16            3.1304     3.3877     2.4168 N.ar    
  17 C17           -1.8380    -1.5793    -0.6899 C.2     
  18 C18           -3.1789    -1.7072    -0.6673 C.2     
  19 O19           -4.1008     0.9875     1.3193 O.2     
  20 C20           -6.1102    -0.3356    -0.9239 C.ar    
  21 C21           -7.4833    -0.4825    -0.9092 C.ar    
  22 C22           -8.0885    -1.2451     0.0757 C.ar    
  23 C23           -7.3186    -1.8613     1.0479 C.ar    
  24 C24           -5.9446    -1.7219     1.0331 C.ar    
  25 F25           -9.4319    -1.3876     0.0884 F       
  26 H26           -1.5591     2.1581     1.9430 H       
  27 H27            1.9102     1.1109     1.9930 H       
  28 H28            1.7880     2.1377     0.5441 H       
  29 H29            0.5379     4.9883     3.7625 H       
  30 H30            2.3821     6.4151     4.6181 H       
  31 H31            4.7206     5.8326     4.0081 H       
  32 H32            5.1432     3.8724     2.5833 H       
  33 H33           -1.2246    -2.2793    -1.2376 H       
  34 H34           -3.6536    -2.5171    -1.2013 H       
  35 H35           -5.6386     0.2594    -1.6920 H       
  36 H36           -8.0856    -0.0021    -1.6661 H       
  37 H37           -7.7925    -2.4550     1.8156 H       
  38 H38           -5.3445    -2.2026     1.7914 H       
@<TRIPOS>BOND
   1    1    2 1
   2    1    9 1
   3    1    5 2
   4    2    3 2
   5    3    4 1
   6    3   17 1
   7    4    5 1
   8    4    6 am
   9    5   26 1
  10    6    7 am
  11    6   19 2
  12    7    8 1
  13    7   18 1
  14    8   20 ar
  15    8   24 ar
  16    9   10 1
  17    9   27 1
  18    9   28 1
  19   10   11 1
  20   11   12 ar
  21   11   16 ar
  22   12   13 ar
  23   12   29 1
  24   13   14 ar
  25   13   30 1
  26   14   15 ar
  27   14   31 1
  28   15   16 ar
  29   15   32 1
  30   17   18 2
  31   17   33 1
  32   18   34 1
  33   20   21 ar
  34   20   35 1
  35   21   22 ar
  36   21   36 1
  37   22   23 ar
  38   22   25 1
  39   23   24 ar
  40   23   37 1
  41   24   38 1

#	End of record

