#	Name: ASD01028255
#	Creating user name:	WinNT
#	Creation time:	15. 06. 2019 18:56

#	Modifying user name:	WinNT
#	Modification time:	15. 06. 2019 18:56

#	Program:	/corina/corina34_cracker 3.40 0067  02.08.2006

@<TRIPOS>MOLECULE
ASD01028255
  46   50    0    0    0
SMALL
NO_CHARGES


@<TRIPOS>ATOM
   1 C1            -0.0166     1.3719     0.0096 C.ar    
   2 C2             0.0021    -0.0041     0.0020 C.ar    
   3 C3             1.1750     2.1035     0.0021 C.ar    
   4 C4             2.3797     1.4715    -0.0128 C.ar    
   5 C5             2.4326     0.0695    -0.0208 C.ar    
   6 C6             1.2322    -0.6815    -0.0134 C.ar    
   7 C7             3.6676    -0.6170    -0.0367 C.ar    
   8 C8             3.6411    -2.0003    -0.0444 C.ar    
   9 C9             2.4221    -2.6660    -0.0364 C.ar    
  10 N10            1.2804    -2.0188    -0.0211 N.ar    
  11 O11            4.8427     0.0593    -0.0447 O.3     
  12 C12            6.0400    -0.7207    -0.0607 C.3     
  13 C13            7.2364     0.1957    -0.0676 C.2     
  14 N14            7.8838     0.6774     1.0232 N.pl3   
  15 C15            8.9036     1.4646     0.5396 C.2     
  16 N16            8.8265     1.4227    -0.7799 N.2     
  17 N17            7.8438     0.6674    -1.1275 N.2     
  18 N18            7.7089     0.5255     2.3999 N.2     
  19 C19            8.5140     1.1312     3.2449 C.2     
  20 C20            9.5690     1.9451     2.7802 C.2     
  21 C21            9.7646     2.1122     1.4455 C.2     
  22 C22            8.3107     0.9571     4.7036 C.2     
  23 O23           -1.2065     2.0271     0.0188 O.3     
  24 C24           -1.1606     3.4553     0.0263 C.3     
  25 C25            7.2608     0.1474     5.1906 C.2     
  26 C26            7.0894    -0.0005     6.5222 C.2     
  27 N27            7.9136     0.6199     7.4061 N.am    
  28 C28            8.9259     1.4001     6.9845 C.2     
  29 C29            9.1509     1.5816     5.6112 C.2     
  30 O30            9.6531     1.9470     7.7983 O.2     
  31 H31           -0.9239    -0.5598     0.0082 H       
  32 H32            1.1387     3.1829     0.0079 H       
  33 H33            3.2932     2.0476    -0.0188 H       
  34 H34            4.5646    -2.5602    -0.0569 H       
  35 H35            2.4134    -3.7460    -0.0425 H       
  36 H36            6.0728    -1.3543     0.8256 H       
  37 H37            6.0552    -1.3447    -0.9543 H       
  38 H38           10.2222     2.4362     3.4864 H       
  39 H39           10.5707     2.7338     1.0846 H       
  40 H40           -2.1761     3.8514     0.0333 H       
  41 H41           -0.6312     3.7971     0.9157 H       
  42 H42           -0.6396     3.8068    -0.8642 H       
  43 H43            6.5968    -0.3517     4.5003 H       
  44 H44            6.2851    -0.6207     6.8896 H       
  45 H45            7.7698     0.4987     8.3577 H       
  46 H46            9.9618     2.2062     5.2669 H       
@<TRIPOS>BOND
   1    1    2 ar
   2    1    3 ar
   3    1   23 1
   4    2    6 ar
   5    2   31 1
   6    3    4 ar
   7    3   32 1
   8    4    5 ar
   9    4   33 1
  10    5    6 ar
  11    5    7 ar
  12    6   10 ar
  13    7    8 ar
  14    7   11 1
  15    8    9 ar
  16    8   34 1
  17    9   10 ar
  18    9   35 1
  19   11   12 1
  20   12   13 1
  21   12   36 1
  22   12   37 1
  23   13   14 1
  24   13   17 2
  25   14   15 1
  26   14   18 1
  27   15   16 2
  28   15   21 1
  29   16   17 1
  30   18   19 2
  31   19   20 1
  32   19   22 1
  33   20   21 2
  34   20   38 1
  35   21   39 1
  36   22   25 1
  37   22   29 2
  38   23   24 1
  39   24   40 1
  40   24   41 1
  41   24   42 1
  42   25   26 2
  43   25   43 1
  44   26   27 1
  45   26   44 1
  46   27   28 am
  47   27   45 1
  48   28   29 1
  49   28   30 2
  50   29   46 1

#	End of record

