#	Name: ASD01148589
#	Creating user name:	WinNT
#	Creation time:	15. 06. 2019 19:02

#	Modifying user name:	WinNT
#	Modification time:	15. 06. 2019 19:02

#	Program:	/corina/corina34_cracker 3.40 0067  02.08.2006

@<TRIPOS>MOLECULE
ASD01148589
  61   65    0    0    0
SMALL
NO_CHARGES


@<TRIPOS>ATOM
   1 C1            -0.0170     1.4375    -0.0252 C.ar    
   2 C2             0.0192     0.0536    -0.0358 C.ar    
   3 C3            -1.1608    -0.6685    -0.0202 C.ar    
   4 C4            -2.3747    -0.0084     0.0061 C.ar    
   5 C5            -2.4108     1.3738     0.0167 C.ar    
   6 C6            -1.2329     2.0967     0.0064 C.ar    
   7 C7            -3.7351     2.0923     0.0449 C.3     
   8 O8            -4.7242     1.3236     0.7591 O.3     
   9 C9            -3.6508     3.3755     0.9055 C.3     
  10 C10           -4.1239     2.8933     2.2637 C.2     
  11 N11           -4.7055     1.7499     2.1071 N.2     
  12 C12           -3.9498     3.6054     3.5412 C.ar    
  13 C13           -4.4567     3.0243     4.7819 C.ar    
  14 C14           -3.2979     4.8303     3.5750 C.ar    
  15 C15           -3.1204     5.5209     4.7608 C.ar    
  16 C16           -3.5862     5.0183     5.9678 C.ar    
  17 C17           -4.2753     3.7306     5.9946 C.ar    
  18 C18           -3.3818     5.7766     7.2155 C.2     
  19 O19           -3.8827     5.3869     8.2529 O.2     
  20 N20           -2.6400     6.9018     7.2065 N.am    
  21 C21           -4.7614     3.1849     7.1894 C.ar    
  22 C22           -5.1152     1.7881     4.7961 C.ar    
  23 C23           -4.2108     2.4136    -1.3734 C.3     
  24 F24           -4.3434     1.2261    -2.1010 F       
  25 F25           -5.4476     3.0648    -1.3141 F       
  26 F26           -3.2763     3.2437    -2.0018 F       
  27 Cl27           1.5442    -0.7751    -0.0694 Cl      
  28 Cl28           1.4627     2.3452    -0.0441 Cl      
  29 N29           -2.4458     7.6224     8.3922 N.pl3   
  30 C30           -1.5220     7.1196     9.4120 C.3     
  31 C31           -3.1330     8.8202     8.6020 C.ar    
  32 C32           -2.9417     9.5359     9.7770 C.ar    
  33 C33           -3.6224    10.7201     9.9810 C.ar    
  34 C34           -4.4937    11.1935     9.0172 C.ar    
  35 C35           -4.6868    10.4833     7.8465 C.ar    
  36 C36           -4.0050     9.3013     7.6335 C.ar    
  37 C37           -5.5721     1.2821     5.9767 C.ar    
  38 C38           -5.3984     1.9797     7.1691 C.ar    
  39 C39           -1.1224    -2.1750    -0.0323 C.3     
  40 F40           -2.4289    -2.6749    -0.0127 F       
  41 F41           -0.4718    -2.6156    -1.1898 F       
  42 F42           -0.4310    -2.6329     1.0943 F       
  43 H43           -3.2956    -0.5724     0.0179 H       
  44 H44           -1.2618     3.1763     0.0148 H       
  45 H45           -2.6243     3.7382     0.9597 H       
  46 H46           -4.3149     4.1470     0.5159 H       
  47 H47           -2.9206     5.2534     2.6557 H       
  48 H48           -2.6080     6.4714     4.7469 H       
  49 H49           -2.2405     7.2127     6.3791 H       
  50 H50           -4.6321     3.7155     8.1212 H       
  51 H51           -5.2603     1.2392     3.8774 H       
  52 H52           -0.5234     7.5137     9.2236 H       
  53 H53           -1.8593     7.4404    10.3976 H       
  54 H54           -1.4961     6.0306     9.3735 H       
  55 H55           -2.2616     9.1665    10.5304 H       
  56 H56           -3.4744    11.2769    10.8946 H       
  57 H57           -5.0247    12.1198     9.1792 H       
  58 H58           -5.3683    10.8556     7.0959 H       
  59 H59           -4.1563     8.7471     6.7190 H       
  60 H60           -6.0796     0.3289     5.9866 H       
  61 H61           -5.7726     1.5597     8.0911 H       
@<TRIPOS>BOND
   1    1    2 ar
   2    1   28 1
   3    1    6 ar
   4    2    3 ar
   5    2   27 1
   6    3    4 ar
   7    3   39 1
   8    4    5 ar
   9    4   43 1
  10    5    6 ar
  11    5    7 1
  12    6   44 1
  13    7    8 1
  14    7    9 1
  15    7   23 1
  16    8   11 1
  17    9   10 1
  18    9   45 1
  19    9   46 1
  20   10   11 2
  21   10   12 1
  22   12   13 ar
  23   12   14 ar
  24   13   22 ar
  25   13   17 ar
  26   14   15 ar
  27   14   47 1
  28   15   16 ar
  29   15   48 1
  30   16   17 ar
  31   16   18 1
  32   17   21 ar
  33   18   19 2
  34   18   20 am
  35   20   29 1
  36   20   49 1
  37   21   38 ar
  38   21   50 1
  39   22   37 ar
  40   22   51 1
  41   23   24 1
  42   23   25 1
  43   23   26 1
  44   29   30 1
  45   29   31 1
  46   30   52 1
  47   30   53 1
  48   30   54 1
  49   31   32 ar
  50   31   36 ar
  51   32   33 ar
  52   32   55 1
  53   33   34 ar
  54   33   56 1
  55   34   35 ar
  56   34   57 1
  57   35   36 ar
  58   35   58 1
  59   36   59 1
  60   37   38 ar
  61   37   60 1
  62   38   61 1
  63   39   40 1
  64   39   41 1
  65   39   42 1

#	End of record

