#	Name: ASD09740146
#	Creating user name:	WinNT
#	Creation time:	15. 06. 2019 21:22

#	Modifying user name:	WinNT
#	Modification time:	15. 06. 2019 21:22

#	Program:	/corina/corina34_cracker 3.40 0067  02.08.2006

@<TRIPOS>MOLECULE
ASD09740146
  45   47    0    0    0
SMALL
NO_CHARGES


@<TRIPOS>ATOM
   1 O1            -0.0144     1.2085     0.0087 O.3     
   2 N2             0.0021    -0.0041     0.0020 N.2     
   3 C3             1.2413     1.6829    -0.0008 C.2     
   4 N4             2.0461     0.6362    -0.0141 N.2     
   5 C5             1.2350    -0.4423    -0.0121 C.2     
   6 C6             1.6625    -1.8634    -0.0229 C.ar    
   7 C7             1.6453     3.1035     0.0030 C.ar    
   8 C8             0.7065    -2.8783    -0.0193 C.ar    
   9 C9             3.0200    -2.1823    -0.0423 C.ar    
  10 C10            3.4181    -3.5003    -0.0527 C.ar    
  11 C11            2.4612    -4.5186    -0.0434 C.ar    
  12 C12            1.1017    -4.1976    -0.0288 C.ar    
  13 C13            0.6740     4.1075     0.0182 C.ar    
  14 C14            1.0570     5.4349     0.0216 C.ar    
  15 C15            2.4100     5.7699     0.0099 C.ar    
  16 C16            3.3744     4.7727    -0.0051 C.ar    
  17 C17            2.9988     3.4458    -0.0028 C.ar    
  18 C18           -0.7600    -2.5315    -0.0045 C.3     
  19 O19            0.1139     6.4147     0.0359 O.3     
  20 C20           -2.1606     7.2310     0.0622 C.3     
  21 C21           -1.2533     5.9991     0.0469 C.3     
  22 O22            2.7851     7.0757     0.0129 O.3     
  23 C23            4.4140     8.8610     0.0058 C.3     
  24 C24            4.1879     7.3478     0.0004 C.3     
  25 C25            2.8738    -5.8899    -0.0543 C.1     
  26 N26            3.2010    -6.9777    -0.0630 N.1     
  27 H27            3.7594    -1.3951    -0.0495 H       
  28 H28            4.4695    -3.7470    -0.0685 H       
  29 H29            0.3610    -4.9835    -0.0217 H       
  30 H30           -0.3740     3.8465     0.0269 H       
  31 H31            4.4218     5.0361    -0.0145 H       
  32 H32            3.7516     2.6715    -0.0145 H       
  33 H33           -1.1227    -2.4428    -1.0286 H       
  34 H34           -1.3138    -3.3165     0.5104 H       
  35 H35           -0.9041    -1.5843     0.5152 H       
  36 H36           -3.2035     6.9140     0.0705 H       
  37 H37           -1.9538     7.8235     0.9534 H       
  38 H38           -1.9710     7.8330    -0.8264 H       
  39 H39           -1.4601     5.4066    -0.8443 H       
  40 H40           -1.4429     5.3971     0.9355 H       
  41 H41            3.9508     9.3007    -0.8774 H       
  42 H42            3.9684     9.2917     0.9025 H       
  43 H43            5.4840     9.0685    -0.0037 H       
  44 H44            4.6512     6.9080     0.8836 H       
  45 H45            4.6336     6.9170    -0.8963 H       
@<TRIPOS>BOND
   1    1    2 1
   2    1    3 1
   3    2    5 2
   4    3    4 2
   5    3    7 1
   6    4    5 1
   7    5    6 1
   8    6    8 ar
   9    6    9 ar
  10    7   13 ar
  11    7   17 ar
  12    8   18 1
  13    8   12 ar
  14    9   10 ar
  15    9   27 1
  16   10   11 ar
  17   10   28 1
  18   11   12 ar
  19   11   25 1
  20   12   29 1
  21   13   14 ar
  22   13   30 1
  23   14   15 ar
  24   14   19 1
  25   15   16 ar
  26   15   22 1
  27   16   17 ar
  28   16   31 1
  29   17   32 1
  30   18   33 1
  31   18   34 1
  32   18   35 1
  33   19   21 1
  34   20   21 1
  35   20   36 1
  36   20   37 1
  37   20   38 1
  38   21   39 1
  39   21   40 1
  40   22   24 1
  41   23   24 1
  42   23   41 1
  43   23   42 1
  44   23   43 1
  45   24   44 1
  46   24   45 1
  47   25   26 3

#	End of record

