#	Name: ASD01916072
#	Creating user name:	WinNT
#	Creation time:	15. 06. 2019 20:06

#	Modifying user name:	WinNT
#	Modification time:	15. 06. 2019 20:06

#	Program:	/corina/corina34_cracker 3.40 0067  02.08.2006

@<TRIPOS>MOLECULE
ASD01916072
  43   45    0    0    0
SMALL
NO_CHARGES


@<TRIPOS>ATOM
   1 C1            -0.0169     1.3974     0.0097 C.ar    
   2 C2             0.0021    -0.0041     0.0020 C.ar    
   3 C3            -1.2070    -0.6758     0.0100 C.ar    
   4 C4            -2.3852     0.0496     0.0252 C.ar    
   5 C5            -3.7040    -0.6796     0.0344 C.3     
   6 C6             1.2059     2.1425     0.0021 C.1     
   7 C7             2.2084     2.7534    -0.0042 C.1     
   8 C8             3.4313     3.4985    -0.0119 C.ar    
   9 C9             3.4015     4.8957    -0.0041 C.ar    
  10 C10            5.8332     3.5545    -0.0288 C.ar    
  11 C11            4.5823     5.6075    -0.0116 C.ar    
  12 N12           -2.3736     1.3687     0.0322 N.ar    
  13 C13           -1.2496     2.0547     0.0192 C.ar    
  14 C14            4.6593     2.8315    -0.0214 C.ar    
  15 C15            5.7971     4.9402    -0.0273 C.ar    
  16 C16           -3.5834    -1.9312    -0.7861 C.2     
  17 N17           -4.2807    -3.0433    -0.5779 N.am    
  18 C18           -5.1785    -3.2468     0.5530 C.3     
  19 C19           -6.1810    -2.0912     0.6475 C.3     
  20 C20           -5.6110    -1.0357     1.5955 C.3     
  21 C21           -4.0840    -1.0172     1.4784 C.3     
  22 O22           -2.7928    -1.9269    -1.7058 O.2     
  23 C23           -4.1386    -4.1336    -1.5460 C.3     
  24 F24            6.9507     5.6432    -0.0341 F       
  25 H25            0.9365    -0.5454    -0.0102 H       
  26 H26           -1.2312    -1.7555     0.0041 H       
  27 H27           -4.4721    -0.0387    -0.3984 H       
  28 H28            2.4556     5.4168     0.0074 H       
  29 H29            6.7828     3.0402    -0.0411 H       
  30 H30            4.5606     6.6873    -0.0056 H       
  31 H31           -1.2809     3.1343     0.0255 H       
  32 H32            4.6887     1.7519    -0.0226 H       
  33 H33           -5.7191    -4.1840     0.4207 H       
  34 H34           -4.5956    -3.2954     1.4727 H       
  35 H35           -6.3324    -1.6548    -0.3397 H       
  36 H36           -7.1303    -2.4596     1.0363 H       
  37 H37           -6.0078    -0.0560     1.3294 H       
  38 H38           -5.8941    -1.2766     2.6201 H       
  39 H39           -3.6856    -1.9970     1.7415 H       
  40 H40           -3.6753    -0.2621     2.1498 H       
  41 H41           -3.4403    -3.8361    -2.3283 H       
  42 H42           -3.7604    -5.0218    -1.0400 H       
  43 H43           -5.1093    -4.3540    -1.9900 H       
@<TRIPOS>BOND
   1    1    2 ar
   2    1    6 1
   3    1   13 ar
   4    2    3 ar
   5    2   25 1
   6    3    4 ar
   7    3   26 1
   8    4   12 ar
   9    4    5 1
  10    5   16 1
  11    5   21 1
  12    5   27 1
  13    6    7 3
  14    7    8 1
  15    8    9 ar
  16    8   14 ar
  17    9   11 ar
  18    9   28 1
  19   10   15 ar
  20   10   14 ar
  21   10   29 1
  22   11   15 ar
  23   11   30 1
  24   12   13 ar
  25   13   31 1
  26   14   32 1
  27   15   24 1
  28   16   17 am
  29   16   22 2
  30   17   18 1
  31   17   23 1
  32   18   19 1
  33   18   33 1
  34   18   34 1
  35   19   20 1
  36   19   35 1
  37   19   36 1
  38   20   21 1
  39   20   37 1
  40   20   38 1
  41   21   39 1
  42   21   40 1
  43   23   41 1
  44   23   42 1
  45   23   43 1

#	End of record

