#	Name: ASD01813268
#	Creating user name:	WinNT
#	Creation time:	15. 06. 2019 19:30

#	Modifying user name:	WinNT
#	Modification time:	15. 06. 2019 19:30

#	Program:	/corina/corina34_cracker 3.40 0067  02.08.2006

@<TRIPOS>MOLECULE
ASD01813268
  58   62    0    0    0
SMALL
NO_CHARGES


@<TRIPOS>ATOM
   1 C1            -0.0178     1.4608     0.0101 C.3     
   2 N2             0.0021    -0.0041     0.0020 N.pl3   
   3 C3             0.0078    -0.7885    -1.0945 C.2     
   4 C4             0.0282    -2.0861    -0.6736 C.2     
   5 C5             0.0349    -2.0759     0.7348 C.2     
   6 N6             0.0245    -0.8309     1.1317 N.2     
   7 C7             0.0409    -3.2902    -1.5423 C.ar    
   8 C8             0.0380    -3.1518    -2.9283 C.ar    
   9 C9             0.0504    -4.2737    -3.7327 C.ar    
  10 C10            0.0652    -5.5345    -3.1656 C.ar    
  11 C11            0.0786    -6.7554    -4.0489 C.3     
  12 N12            1.4448    -7.2760    -4.1417 N.pl3   
  13 N13            2.2997    -6.9164    -5.0295 N.2     
  14 C14            3.4503    -7.5385    -4.8852 C.2     
  15 C15            4.6533    -7.3738    -5.7205 C.2     
  16 O16            5.6569    -8.0150    -5.4746 O.2     
  17 N17            4.6411    -6.5123    -6.7570 N.am    
  18 C18            5.8369    -6.3485    -7.5874 C.3     
  19 H19            6.7270    -6.4441    -6.9655 H       
  20 C20            5.8553    -7.4262    -8.6733 C.3     
  21 C21            7.1041    -7.2552    -9.5405 C.3     
  22 C22            7.0852    -5.8722   -10.1947 C.3     
  23 C23            7.0668    -4.7946    -9.1088 C.3     
  24 C24            5.8180    -4.9656    -8.2416 C.3     
  25 H25            4.9279    -4.8700    -8.8635 H       
  26 O26            5.8008    -3.9591    -7.2274 O.3     
  27 C27            3.2992    -8.4297    -3.7263 C.ar    
  28 N28            4.0821    -9.2930    -3.0961 N.ar    
  29 C29            3.6528    -9.9688    -2.0516 C.ar    
  30 C30            2.3624    -9.8045    -1.5677 C.ar    
  31 C31            1.5052    -8.9161    -2.1889 C.ar    
  32 C32            1.9786    -8.2056    -3.2890 C.ar    
  33 C33            0.0681    -5.6791    -1.7875 C.ar    
  34 F34            0.0826    -6.9135    -1.2385 F       
  35 C35            0.0616    -4.5616    -0.9739 C.ar    
  36 H36            1.0048     1.8381     0.0023 H       
  37 H37           -0.5450     1.8219    -0.8730 H       
  38 H38           -0.5280     1.8123     0.9069 H       
  39 H39           -0.0020    -0.4508    -2.1203 H       
  40 H40            0.0502    -2.9454     1.3751 H       
  41 H41            0.0258    -2.1678    -3.3733 H       
  42 H42            0.0481    -4.1663    -4.8074 H       
  43 H43           -0.5730    -7.5187    -3.6237 H       
  44 H44           -0.2766    -6.4878    -5.0441 H       
  45 H45            3.8406    -6.0008    -6.9532 H       
  46 H46            5.8688    -8.4115    -8.2072 H       
  47 H47            4.9652    -7.3306    -9.2951 H       
  48 H48            7.9942    -7.3508    -8.9186 H       
  49 H49            7.1172    -8.0230   -10.3141 H       
  50 H50            7.9749    -5.7504   -10.8125 H       
  51 H51            6.1951    -5.7767   -10.8166 H       
  52 H52            7.9569    -4.8901    -8.4870 H       
  53 H53            7.0533    -3.8093    -9.5749 H       
  54 H54            5.7882    -3.0551    -7.5706 H       
  55 H55            4.3175   -10.6649    -1.5617 H       
  56 H56            2.0294   -10.3690    -0.7093 H       
  57 H57            0.4972    -8.7734    -1.8283 H       
  58 H58            0.0684    -4.6741     0.1002 H       
@<TRIPOS>BOND
   1    1    2 1
   2    1   36 1
   3    1   37 1
   4    1   38 1
   5    2    6 1
   6    2    3 1
   7    3    4 2
   8    3   39 1
   9    4    5 1
  10    4    7 1
  11    5    6 2
  12    5   40 1
  13    7   35 ar
  14    7    8 ar
  15    8    9 ar
  16    8   41 1
  17    9   10 ar
  18    9   42 1
  19   10   11 1
  20   10   33 ar
  21   11   12 1
  22   11   43 1
  23   11   44 1
  24   12   32 1
  25   12   13 1
  26   13   14 2
  27   14   15 1
  28   14   27 1
  29   15   16 2
  30   15   17 am
  31   17   18 1
  32   17   45 1
  33   18   19 1
  34   18   24 1
  35   18   20 1
  36   20   21 1
  37   20   46 1
  38   20   47 1
  39   21   22 1
  40   21   48 1
  41   21   49 1
  42   22   23 1
  43   22   50 1
  44   22   51 1
  45   23   24 1
  46   23   52 1
  47   23   53 1
  48   24   25 1
  49   24   26 1
  50   26   54 1
  51   27   32 ar
  52   27   28 ar
  53   28   29 ar
  54   29   30 ar
  55   29   55 1
  56   30   31 ar
  57   30   56 1
  58   31   32 ar
  59   31   57 1
  60   33   34 1
  61   33   35 ar
  62   35   58 1

#	End of record

