#	Name: ASD08170065
#	Creating user name:	WinNT
#	Creation time:	15. 06. 2019 21:17

#	Modifying user name:	WinNT
#	Modification time:	15. 06. 2019 21:17

#	Program:	/corina/corina34_cracker 3.40 0067  02.08.2006

@<TRIPOS>MOLECULE
ASD08170065
  98  101    0    0    0
SMALL
NO_CHARGES


@<TRIPOS>ATOM
   1 N1            -0.0150     1.2583     0.0090 N.2     
   2 N2             0.0021    -0.0041     0.0020 N.2     
   3 C3             1.1271     1.8769     0.0014 C.2     
   4 S4             2.3826     0.7116    -0.0169 S.3     
   5 C5             1.1681    -0.5677    -0.0121 C.2     
   6 C6             1.4387    -2.0502    -0.0227 C.3     
   7 C7             1.5165    -2.5442    -1.4687 C.3     
   8 C8             1.8690    -4.5432    -2.9254 C.3     
   9 C9             2.1395    -6.0257    -2.9359 C.2     
  10 N10            1.2478    -6.9651    -2.9329 N.2     
  11 S11            3.7275    -6.7933    -2.9623 S.3     
  12 C12            2.9647    -8.3272    -2.9581 C.2     
  13 N13            1.6777    -8.1521    -2.9433 N.2     
  14 N14            3.6154    -9.5562    -2.9730 N.am    
  15 C15            2.8993   -10.6980    -2.9678 C.2     
  16 O16            1.6874   -10.6536    -2.9501 O.2     
  17 C17            3.6044   -12.0297    -2.9839 C.3     
  18 N18            1.3017     3.2566     0.0067 N.am    
  19 C19            0.2284     4.0717     0.0214 C.2     
  20 C20            0.4176     5.5667     0.0272 C.3     
  21 O21           -0.8897     3.6019     0.0299 O.2     
  22 C22            1.7912    -4.0493    -1.4794 C.3     
  23 C23            2.5684   -13.1555    -2.9740 C.3     
  24 C24           -0.9494     6.2538     0.0441 C.3     
  25 C25           -0.7581     7.7665     0.1757 C.3     
  26 C26            3.2789   -14.5035    -3.1160 C.3     
  27 C27           -2.1292     8.4479     0.2271 C.3     
  28 N28           -2.9055     8.0380    -0.9511 N.am    
  29 C29           -3.0739     6.6038    -1.2222 C.3     
  30 C30           -1.6922     5.9431    -1.2574 C.3     
  31 C31            1.7922   -13.1225    -1.6554 C.3     
  32 C32            0.7328   -14.2290    -1.6633 C.3     
  33 N33            1.3911   -15.5121    -1.9440 N.am    
  34 C34            2.2363   -15.6257    -3.1405 C.3     
  35 C35           -3.4530     8.9601    -1.7675 C.2     
  36 O36           -4.1619     8.5703    -2.8437 O.3     
  37 O37           -3.3068    10.1432    -1.5322 O.2     
  38 C38           -4.7226     9.6178    -3.6784 C.3     
  39 C39           -3.5934    10.4935    -4.2251 C.3     
  40 C40           -5.4882     8.9868    -4.8431 C.3     
  41 C41           -5.6770    10.4768    -2.8465 C.3     
  42 C42            1.2234   -16.5649    -1.1193 C.2     
  43 O43            0.5222   -16.4581    -0.1327 O.2     
  44 O44            1.8328   -17.7348    -1.3887 O.3     
  45 C45            1.6071   -18.8255    -0.4571 C.3     
  46 C46            0.1120   -19.1447    -0.3981 C.3     
  47 C47            2.3748   -20.0633    -0.9254 C.3     
  48 C48            2.0968   -18.4176     0.9338 C.3     
  49 H49            2.3843    -2.2506     0.4811 H       
  50 H50            0.6334    -2.5702     0.4961 H       
  51 H51            0.5709    -2.3438    -1.9724 H       
  52 H52            2.3218    -2.0242    -1.9874 H       
  53 H53            2.6743    -4.0232    -3.4441 H       
  54 H54            0.9234    -4.3429    -3.4291 H       
  55 H55            4.5846    -9.5917    -2.9871 H       
  56 H56            4.2156   -12.1064    -3.8831 H       
  57 H57            4.2413   -12.1143    -2.1034 H       
  58 H58            2.1959     3.6323    -0.0001 H       
  59 H59            0.9817     5.8582     0.9132 H       
  60 H60            0.9643     5.8672    -0.8667 H       
  61 H61            2.7368    -4.2496    -0.9756 H       
  62 H62            0.9858    -4.5693    -0.9606 H       
  63 H63            1.8769   -13.0201    -3.8056 H       
  64 H64           -1.5301     5.8862     0.8901 H       
  65 H65           -0.2085     7.9854     1.0911 H       
  66 H66           -0.1989     8.1385    -0.6828 H       
  67 H67            3.8503   -14.5176    -4.0441 H       
  68 H68            3.9521   -14.6508    -2.2715 H       
  69 H69           -2.6537     8.1456     1.1335 H       
  70 H70           -1.9998     9.5301     0.2210 H       
  71 H71           -3.6755     6.1512    -0.4340 H       
  72 H72           -3.5678     6.4694    -2.1845 H       
  73 H73           -1.1242     6.3323    -2.1023 H       
  74 H74           -1.8075     4.8643    -1.3619 H       
  75 H75            2.4794   -13.2827    -0.8246 H       
  76 H76            1.3055   -12.1536    -1.5439 H       
  77 H77            0.2443   -14.2741    -0.6899 H       
  78 H78           -0.0070   -14.0211    -2.4364 H       
  79 H79            1.6191   -15.5316    -4.0340 H       
  80 H80            2.7398   -16.5924    -3.1418 H       
  81 H81           -2.9134     9.8816    -4.8178 H       
  82 H82           -4.0143    11.2799    -4.8517 H       
  83 H83           -3.0480    10.9431    -3.3953 H       
  84 H84           -6.2926     8.3629    -4.4537 H       
  85 H85           -5.9091     9.7731    -5.4697 H       
  86 H86           -4.8082     8.3748    -5.4358 H       
  87 H87           -5.1316    10.9264    -2.0167 H       
  88 H88           -6.0979    11.2631    -3.4731 H       
  89 H89           -6.4815     9.8529    -2.4570 H       
  90 H90           -0.2369   -19.4353    -1.3890 H       
  91 H91           -0.0574   -19.9634     0.3013 H       
  92 H92           -0.4350   -18.2628    -0.0645 H       
  93 H93            3.4400   -19.8359    -0.9674 H       
  94 H94            2.2054   -20.8820    -0.2260 H       
  95 H95            2.0260   -20.3539    -1.9163 H       
  96 H96            1.5499   -17.5357     1.2675 H       
  97 H97            1.9274   -19.2363     1.6332 H       
  98 H98            3.1620   -18.1902     0.8918 H       
@<TRIPOS>BOND
   1    1    2 1
   2    1    3 2
   3    2    5 2
   4    3    4 1
   5    3   18 1
   6    4    5 1
   7    5    6 1
   8    6    7 1
   9    6   49 1
  10    6   50 1
  11    7   22 1
  12    7   51 1
  13    7   52 1
  14    8    9 1
  15    8   22 1
  16    8   53 1
  17    8   54 1
  18    9   10 2
  19    9   11 1
  20   10   13 1
  21   11   12 1
  22   12   13 2
  23   12   14 1
  24   14   15 am
  25   14   55 1
  26   15   16 2
  27   15   17 1
  28   17   23 1
  29   17   56 1
  30   17   57 1
  31   18   19 am
  32   18   58 1
  33   19   20 1
  34   19   21 2
  35   20   24 1
  36   20   59 1
  37   20   60 1
  38   22   61 1
  39   22   62 1
  40   23   26 1
  41   23   31 1
  42   23   63 1
  43   24   25 1
  44   24   30 1
  45   24   64 1
  46   25   27 1
  47   25   65 1
  48   25   66 1
  49   26   34 1
  50   26   67 1
  51   26   68 1
  52   27   28 1
  53   27   69 1
  54   27   70 1
  55   28   29 1
  56   28   35 am
  57   29   30 1
  58   29   71 1
  59   29   72 1
  60   30   73 1
  61   30   74 1
  62   31   32 1
  63   31   75 1
  64   31   76 1
  65   32   33 1
  66   32   77 1
  67   32   78 1
  68   33   34 1
  69   33   42 am
  70   34   79 1
  71   34   80 1
  72   35   36 1
  73   35   37 2
  74   36   38 1
  75   38   39 1
  76   38   40 1
  77   38   41 1
  78   39   81 1
  79   39   82 1
  80   39   83 1
  81   40   84 1
  82   40   85 1
  83   40   86 1
  84   41   87 1
  85   41   88 1
  86   41   89 1
  87   42   43 2
  88   42   44 1
  89   44   45 1
  90   45   46 1
  91   45   47 1
  92   45   48 1
  93   46   90 1
  94   46   91 1
  95   46   92 1
  96   47   93 1
  97   47   94 1
  98   47   95 1
  99   48   96 1
 100   48   97 1
 101   48   98 1

#	End of record

