#	Name: ASD01882896
#	Creating user name:	WinNT
#	Creation time:	15. 06. 2019 19:45

#	Modifying user name:	WinNT
#	Modification time:	15. 06. 2019 19:45

#	Program:	/corina/corina34_cracker 3.40 0067  02.08.2006

@<TRIPOS>MOLECULE
ASD01882896
  43   45    0    0    0
SMALL
NO_CHARGES


@<TRIPOS>ATOM
   1 C1            -0.1666     1.4197     0.0179 C.ar    
   2 C2            -0.1082    -0.0585     0.0044 C.2     
   3 C3             0.2094    -0.7535    -1.1782 C.2     
   4 C4             0.2590    -2.1054    -1.1753 C.2     
   5 N5             0.0076    -2.8193    -0.0485 N.am    
   6 C6            -0.3017    -2.2107     1.1115 C.2     
   7 C7            -0.3629    -0.7960     1.1729 C.2     
   8 C8             0.0737    -4.2820    -0.0960 C.3     
   9 O9            -0.5235    -2.8752     2.1093 O.2     
  10 C10           -0.6904    -0.1319     2.3986 C.1     
  11 N11           -0.9501     0.3949     3.3710 N.1     
  12 C12            1.4313    -4.7390     0.3723 C.ar    
  13 C13            2.5107    -4.6947    -0.4897 C.ar    
  14 C14            3.7561    -5.1139    -0.0601 C.ar    
  15 C15            3.9218    -5.5769     1.2316 C.ar    
  16 C16            2.8422    -5.6204     2.0942 C.ar    
  17 C17            1.5981    -5.1972     1.6660 C.ar    
  18 C18            2.3300    -4.1899    -1.8981 C.3     
  19 C19            0.9886     2.1678    -0.2090 C.ar    
  20 C20            0.9263     3.5512    -0.1949 C.ar    
  21 C21           -0.2828     4.1899     0.0447 C.ar    
  22 C22           -1.4289     3.4494     0.2699 C.ar    
  23 C23           -1.3792     2.0708     0.2522 C.ar    
  24 O24            2.0496     4.2839    -0.4151 O.3     
  25 C25            1.9126     5.7060    -0.3861 C.3     
  26 H26            0.4130    -0.2074    -2.0875 H       
  27 H27            0.5033    -2.6275    -2.0885 H       
  28 H28           -0.6948    -4.7018     0.5531 H       
  29 H29           -0.0905    -4.6201    -1.1192 H       
  30 H30            4.5995    -5.0800    -0.7339 H       
  31 H31            4.8946    -5.9051     1.5670 H       
  32 H32            2.9717    -5.9825     3.1034 H       
  33 H33            0.7548    -5.2311     2.3399 H       
  34 H34            2.4333    -3.1048    -1.9112 H       
  35 H35            3.0874    -4.6347    -2.5435 H       
  36 H36            1.3387    -4.4649    -2.2583 H       
  37 H37            1.9287     1.6698    -0.3949 H       
  38 H38           -0.3285     5.2688     0.0555 H       
  39 H39           -2.3666     3.9519     0.4560 H       
  40 H40           -2.2760     1.4955     0.4284 H       
  41 H41            2.8812     6.1683    -0.5763 H       
  42 H42            1.2040     6.0185    -1.1532 H       
  43 H43            1.5480     6.0160     0.5932 H       
@<TRIPOS>BOND
   1    1    2 1
   2    1   19 ar
   3    1   23 ar
   4    2    3 1
   5    2    7 2
   6    3    4 2
   7    3   26 1
   8    4    5 1
   9    4   27 1
  10    5    6 am
  11    5    8 1
  12    6    7 1
  13    6    9 2
  14    7   10 1
  15    8   12 1
  16    8   28 1
  17    8   29 1
  18   10   11 3
  19   12   13 ar
  20   12   17 ar
  21   13   14 ar
  22   13   18 1
  23   14   15 ar
  24   14   30 1
  25   15   16 ar
  26   15   31 1
  27   16   17 ar
  28   16   32 1
  29   17   33 1
  30   18   34 1
  31   18   35 1
  32   18   36 1
  33   19   20 ar
  34   19   37 1
  35   20   21 ar
  36   20   24 1
  37   21   22 ar
  38   21   38 1
  39   22   23 ar
  40   22   39 1
  41   23   40 1
  42   24   25 1
  43   25   41 1
  44   25   42 1
  45   25   43 1

#	End of record

