#	Name: ASD01913586
#	Creating user name:	WinNT
#	Creation time:	15. 06. 2019 20:01

#	Modifying user name:	WinNT
#	Modification time:	15. 06. 2019 20:01

#	Program:	/corina/corina34_cracker 3.40 0067  02.08.2006

@<TRIPOS>MOLECULE
ASD01913586
  43   45    0    0    0
SMALL
NO_CHARGES


@<TRIPOS>ATOM
   1 C1            -2.9828     0.0702    -1.3176 C.ar    
   2 C2            -2.3933    -0.1638    -0.0794 C.ar    
   3 C3            -3.1041     0.1826     1.0651 C.ar    
   4 N4            -4.3067     0.7183     0.9364 N.ar    
   5 C5            -4.8313     0.9244    -0.2549 C.ar    
   6 N6            -4.1897     0.6099    -1.3622 N.ar    
   7 C7            -1.0661    -2.0680     0.1060 C.ar    
   8 C8             0.1632    -2.6890     0.3081 C.ar    
   9 C9             0.2165    -4.0680     0.4073 C.ar    
  10 N10           -0.8754    -4.7964     0.3134 N.ar    
  11 C11           -2.0690    -4.2463     0.1207 C.ar    
  12 C12           -2.2034    -2.8666     0.0109 C.ar    
  13 C13           -3.2684    -5.1109     0.0219 C.2     
  14 N14           -3.1452    -6.4488     0.1274 N.am    
  15 O15           -1.1550    -0.7170     0.0097 O.3     
  16 O16           -4.3630    -4.6136    -0.1544 O.2     
  17 C17           -4.3309    -7.3036     0.0297 C.3     
  18 C18           -3.9223    -8.6273    -0.4166 C.3     
  19 C19           -5.1211    -9.5781    -0.6114 C.3     
  20 C20           -5.5346   -10.1080     0.7349 C.3     
  21 C21           -6.6640    -9.2774     1.3738 C.3     
  22 C22           -6.4657    -7.7603     1.1926 C.3     
  23 C23           -5.0367    -7.3374     1.4008 C.3     
  24 H24           -2.4609    -0.1810    -2.2291 H       
  25 H25           -2.6804     0.0162     2.0445 H       
  26 H26           -5.8156     1.3633    -0.3257 H       
  27 H27            1.0656    -2.1009     0.3863 H       
  28 H28            1.1683    -4.5537     0.5637 H       
  29 H29           -3.1747    -2.4210    -0.1454 H       
  30 H30           -2.2714    -6.8458     0.2681 H       
  31 H31           -5.0128    -6.8778    -0.7064 H       
  32 H32           -3.3900    -8.5320    -1.3629 H       
  33 H33           -3.2478    -9.0569     0.3241 H       
  34 H34           -5.9512    -9.0334    -1.0612 H       
  35 H35           -4.8301   -10.4065    -1.2573 H       
  36 H36           -5.8755   -11.1368     0.6194 H       
  37 H37           -4.6701   -10.0973     1.3988 H       
  38 H38           -7.6120    -9.5647     0.9192 H       
  39 H39           -6.7055    -9.5016     2.4397 H       
  40 H40           -6.7723    -7.4825     0.1842 H       
  41 H41           -7.0971    -7.2341     1.9086 H       
  42 H42           -4.5348    -8.0517     2.0534 H       
  43 H43           -5.0104    -6.3449     1.8507 H       
@<TRIPOS>BOND
   1    1    2 ar
   2    1    6 ar
   3    1   24 1
   4    2    3 ar
   5    2   15 1
   6    3    4 ar
   7    3   25 1
   8    4    5 ar
   9    5    6 ar
  10    5   26 1
  11    7    8 ar
  12    7   12 ar
  13    7   15 1
  14    8    9 ar
  15    8   27 1
  16    9   10 ar
  17    9   28 1
  18   10   11 ar
  19   11   12 ar
  20   11   13 1
  21   12   29 1
  22   13   14 am
  23   13   16 2
  24   14   17 1
  25   14   30 1
  26   17   18 1
  27   17   23 1
  28   17   31 1
  29   18   19 1
  30   18   32 1
  31   18   33 1
  32   19   20 1
  33   19   34 1
  34   19   35 1
  35   20   21 1
  36   20   36 1
  37   20   37 1
  38   21   22 1
  39   21   38 1
  40   21   39 1
  41   22   23 1
  42   22   40 1
  43   22   41 1
  44   23   42 1
  45   23   43 1

#	End of record

