#	Name: ASD00960119
#	Creating user name:	WinNT
#	Creation time:	15. 06. 2019 18:53

#	Modifying user name:	WinNT
#	Modification time:	15. 06. 2019 18:53

#	Program:	/corina/corina34_cracker 3.40 0067  02.08.2006

@<TRIPOS>MOLECULE
ASD00960119
  36   38    0    0    0
SMALL
NO_CHARGES


@<TRIPOS>ATOM
   1 C1            -0.0189     1.5406     0.0105 C.3     
   2 C2             0.0021    -0.0041     0.0020 C.3     
   3 O3            -1.0943    -0.3927     0.8581 O.3     
   4 C4            -1.0543     0.5287     1.9695 C.3     
   5 C5            -2.4127     0.5753     2.6719 C.3     
   6 C6            -0.2140    -0.5240    -1.3959 C.2     
   7 C7             0.7538    -0.6875    -2.3255 C.2     
   8 N8            -1.4084    -0.9053    -1.9128 N.pl3   
   9 C9            -1.2189    -1.3214    -3.2078 C.2     
  10 C10            0.1451    -1.1935    -3.4960 C.2     
  11 N11           -2.7079    -0.9432    -1.3860 N.2     
  12 C12           -3.7002    -1.3663    -2.1226 C.2     
  13 N13           -3.5284    -1.7719    -3.3773 N.2     
  14 C14           -2.3345    -1.7666    -3.9477 C.2     
  15 N15           -2.1821    -2.1925    -5.2529 N.pl3   
  16 C16           -0.7298     1.8991     1.3346 C.3     
  17 O17           -2.7268    -0.7197     3.1880 O.3     
  18 O18            0.1409     2.6504     2.1829 O.3     
  19 *19            0.0367     4.0469     2.0191 Du      
  20 N20           -0.0051     0.1412     2.9157 N.2     
  21 N21           -0.0541    -0.8561     3.4318 N.1     
  22 N22           -0.1032    -1.8534     3.9479 N.pl3   
  23 C23            0.7946    -1.5127    -4.7316 C.1     
  24 N24            1.3098    -1.7659    -5.7119 N.1     
  25 O25            1.3126     2.0594     0.0006 O.3     
  26 *26            1.4358     3.3105    -0.6380 Du      
  27 H27           -0.5818     1.9196    -0.8424 H       
  28 H28            0.9460    -0.3730     0.4033 H       
  29 H29           -2.3737     1.2933     3.4911 H       
  30 H30           -3.1799     0.8784     1.9594 H       
  31 H31            1.8039    -0.4703    -2.1967 H       
  32 H32           -4.6932    -1.3878    -1.6984 H       
  33 H33           -2.9528    -2.4977    -5.7566 H       
  34 H34           -1.3044    -2.1863    -5.6658 H       
  35 H35           -1.6462     2.4554     1.1376 H       
  36 H36           -3.5766    -0.7645     3.6473 H       
@<TRIPOS>BOND
   1    1    2 1
   2    1   25 1
   3    1   16 1
   4    1   27 1
   5    2    3 1
   6    2    6 1
   7    2   28 1
   8    3    4 1
   9    4    5 1
  10    4   20 1
  11    4   16 1
  12    5   17 1
  13    5   29 1
  14    5   30 1
  15    6    7 2
  16    6    8 1
  17    7   10 1
  18    7   31 1
  19    8    9 1
  20    8   11 1
  21    9   10 2
  22    9   14 1
  23   10   23 1
  24   11   12 2
  25   12   13 1
  26   12   32 1
  27   13   14 2
  28   14   15 1
  29   15   33 1
  30   15   34 1
  31   16   18 1
  32   16   35 1
  33   17   36 1
  34   18   19 1
  35   20   21 2
  36   21   22 2
  37   23   24 3
  38   25   26 1

#	End of record

