#	Name: ASD01150376
#	Creating user name:	WinNT
#	Creation time:	15. 06. 2019 19:04

#	Modifying user name:	WinNT
#	Modification time:	15. 06. 2019 19:04

#	Program:	/corina/corina34_cracker 3.40 0067  02.08.2006

@<TRIPOS>MOLECULE
ASD01150376
  42   44    0    0    0
SMALL
NO_CHARGES


@<TRIPOS>ATOM
   1 C1            -0.0166     1.3766     0.0096 C.ar    
   2 C2             0.0021    -0.0041     0.0020 C.ar    
   3 C3             1.2083    -0.6808    -0.0131 C.ar    
   4 C4             2.3989     0.0222    -0.0207 C.ar    
   5 C5             2.3873     1.4033    -0.0127 C.ar    
   6 C6             1.1779     2.0860     0.0020 C.ar    
   7 N7             1.1625     3.4851     0.0097 N.am    
   8 C8             0.4930     4.1352     0.9777 C.2     
   9 N9             0.4576     5.4802     1.0158 N.am    
  10 C10            1.1005     6.2001     0.0730 C.2     
  11 C11            1.8346     5.4950    -0.9886 C.2     
  12 N12            1.8491     4.1881    -0.9873 N.2     
  13 O13            1.0729     7.4164     0.1004 O.2     
  14 C14           -0.2798     6.1631     2.0817 C.3     
  15 O15           -0.0907     3.4973     1.8330 O.2     
  16 C16            0.6380     6.4052     3.2521 C.ar    
  17 C17            1.3702     7.5755     3.3255 C.ar    
  18 C18            2.2122     7.7981     4.3987 C.ar    
  19 C19            2.3222     6.8494     5.3997 C.ar    
  20 C20            1.5892     5.6783     5.3257 C.ar    
  21 C21            0.7433     5.4593     4.2548 C.ar    
  22 Cl22           3.3800     7.1280     6.7477 Cl      
  23 O23            2.4919     6.1912    -1.9523 O.3     
  24 C24            3.1804     5.4305    -2.9469 C.3     
  25 C25            3.6855     2.1686    -0.0200 C.3     
  26 C26            4.0591     2.5141     1.3612 C.1     
  27 N27            4.3475     2.7808     2.4272 N.1     
  28 H28           -0.9588     1.9044     0.0169 H       
  29 H29           -0.9261    -0.5561     0.0083 H       
  30 H30            1.2201    -1.7607    -0.0187 H       
  31 H31            3.3390    -0.5093    -0.0326 H       
  32 H32           -0.6548     7.1169     1.7106 H       
  33 H33           -1.1175     5.5422     2.3992 H       
  34 H34            1.2845     8.3158     2.5439 H       
  35 H35            2.7844     8.7123     4.4557 H       
  36 H36            1.6747     4.9374     6.1068 H       
  37 H37            0.1710     4.5452     4.1970 H       
  38 H38            3.9361     4.8071    -2.4690 H       
  39 H39            2.4690     4.7971    -3.4769 H       
  40 H40            3.6612     6.1070    -3.6535 H       
  41 H41            4.4675     1.5533    -0.4649 H       
  42 H42            3.5657     3.0817    -0.6032 H       
@<TRIPOS>BOND
   1    1    2 ar
   2    1    6 ar
   3    1   28 1
   4    2    3 ar
   5    2   29 1
   6    3    4 ar
   7    3   30 1
   8    4    5 ar
   9    4   31 1
  10    5    6 ar
  11    5   25 1
  12    6    7 1
  13    7    8 am
  14    7   12 1
  15    8    9 am
  16    8   15 2
  17    9   10 am
  18    9   14 1
  19   10   11 1
  20   10   13 2
  21   11   12 2
  22   11   23 1
  23   14   16 1
  24   14   32 1
  25   14   33 1
  26   16   17 ar
  27   16   21 ar
  28   17   18 ar
  29   17   34 1
  30   18   19 ar
  31   18   35 1
  32   19   20 ar
  33   19   22 1
  34   20   21 ar
  35   20   36 1
  36   21   37 1
  37   23   24 1
  38   24   38 1
  39   24   39 1
  40   24   40 1
  41   25   26 1
  42   25   41 1
  43   25   42 1
  44   26   27 3

#	End of record

