#	Name: ASD01918612
#	Creating user name:	WinNT
#	Creation time:	15. 06. 2019 20:11

#	Modifying user name:	WinNT
#	Modification time:	15. 06. 2019 20:11

#	Program:	/corina/corina34_cracker 3.40 0067  02.08.2006

@<TRIPOS>MOLECULE
ASD01918612
  39   41    0    0    0
SMALL
NO_CHARGES


@<TRIPOS>ATOM
   1 F1             0.0030    -0.0041     0.0030 F       
   2 C2            -0.0153     1.3468     0.0104 C.ar    
   3 C3             0.0610     2.0460    -1.1826 C.ar    
   4 C4             0.0420     3.4268    -1.1771 C.ar    
   5 C5            -0.0538     4.1142     0.0256 C.ar    
   6 C6            -0.1302     3.4113     1.2207 C.ar    
   7 C7            -0.1162     2.0304     1.2106 C.ar    
   8 N8            -0.0728     5.5152     0.0333 N.am    
   9 C9             1.0973     6.2094     0.1181 C.2     
  10 C10            1.0641     7.5645     0.1245 C.2     
  11 C11           -0.1802     8.2169     0.0433 C.2     
  12 O12           -0.2406     9.5673     0.0474 O.3     
  13 C13           -1.5385    10.1589    -0.0379 C.3     
  14 C14           -1.4064    11.6831    -0.0195 C.3     
  15 O15           -0.7160    12.1155    -1.1936 O.3     
  16 C16           -0.5139    13.4521    -1.3333 C.ar    
  17 C17           -0.9656    14.3289    -0.3577 C.ar    
  18 C18           -0.7585    15.6871    -0.5019 C.ar    
  19 C19           -0.1020    16.1729    -1.6176 C.ar    
  20 C20            0.3488    15.3012    -2.5916 C.ar    
  21 C21            0.1496    13.9416    -2.4491 C.ar    
  22 N22           -1.2918     7.5015    -0.0376 N.2     
  23 C23           -1.2457     6.1699    -0.0486 C.2     
  24 O24           -2.2836     5.5341    -0.1289 O.2     
  25 H25            0.1359     1.5110    -2.1178 H       
  26 H26            0.1019     3.9717    -2.1076 H       
  27 H27           -0.2045     3.9441     2.1571 H       
  28 H28           -0.1798     1.4833     2.1396 H       
  29 H29            2.0399     5.6858     0.1797 H       
  30 H30            1.9788     8.1349     0.1913 H       
  31 H31           -2.0198     9.8471    -0.9648 H       
  32 H32           -2.1414     9.8362     0.8110 H       
  33 H33           -2.3987    12.1335     0.0051 H       
  34 H34           -0.8467    11.9887     0.8644 H       
  35 H35           -1.4791    13.9501     0.5136 H       
  36 H36           -1.1099    16.3701     0.2573 H       
  37 H37            0.0587    17.2351    -1.7287 H       
  38 H38            0.8610    15.6831    -3.4623 H       
  39 H39            0.5058    13.2607    -3.2080 H       
@<TRIPOS>BOND
   1    1    2 1
   2    2    7 ar
   3    2    3 ar
   4    3    4 ar
   5    3   25 1
   6    4    5 ar
   7    4   26 1
   8    5    6 ar
   9    5    8 1
  10    6    7 ar
  11    6   27 1
  12    7   28 1
  13    8   23 am
  14    8    9 1
  15    9   10 2
  16    9   29 1
  17   10   11 1
  18   10   30 1
  19   11   12 1
  20   11   22 2
  21   12   13 1
  22   13   14 1
  23   13   31 1
  24   13   32 1
  25   14   15 1
  26   14   33 1
  27   14   34 1
  28   15   16 1
  29   16   21 ar
  30   16   17 ar
  31   17   18 ar
  32   17   35 1
  33   18   19 ar
  34   18   36 1
  35   19   20 ar
  36   19   37 1
  37   20   21 ar
  38   20   38 1
  39   21   39 1
  40   22   23 1
  41   23   24 2

#	End of record

