#	Name: ASD04880707
#	Creating user name:	WinNT
#	Creation time:	15. 06. 2019 20:53

#	Modifying user name:	WinNT
#	Modification time:	15. 06. 2019 20:53

#	Program:	/corina/corina34_cracker 3.40 0067  02.08.2006

@<TRIPOS>MOLECULE
ASD04880707
  84   89    0    0    0
SMALL
NO_CHARGES


@<TRIPOS>ATOM
   1 C1             0.0070     1.3672     0.0066 C.ar    
   2 C2            -1.1974     2.0443     0.0684 C.ar    
   3 C3            -1.2158     3.4261     0.1125 C.ar    
   4 C4            -0.0305     4.1350     0.0951 C.ar    
   5 C5             1.1808     3.4582     0.0331 C.ar    
   6 C6             1.1956     2.0697    -0.0111 C.ar    
   7 C7            -0.0515     5.6411     0.1428 C.3     
   8 N8             2.3813     4.1719     0.0149 N.3     
   9 C9             3.1843     3.8824     1.2111 C.3     
  10 C10            3.1437     3.8888    -1.2090 C.3     
  11 C11            4.4103     4.7478    -1.2280 C.3     
  12 N12            5.2134     4.4582    -0.0318 N.3     
  13 C13            4.4509     4.7413     1.1921 C.3     
  14 C14            6.4102     5.1697    -0.0500 C.ar    
  15 C15            6.6411     6.1596     0.8950 C.ar    
  16 C16            7.8289     6.8694     0.8803 C.ar    
  17 C17            8.8006     6.5869    -0.0916 C.ar    
  18 C18            8.5639     5.5877    -1.0423 C.ar    
  19 C19            7.3786     4.8809    -1.0172 C.ar    
  20 N20            7.1424     3.8755    -1.9665 N.am    
  21 C21            7.6229     4.0050    -3.2190 C.2     
  22 C22            7.4840     2.8960    -4.1801 C.2     
  23 O23            8.1711     5.0371    -3.5564 O.2     
  24 C24            6.9688     0.9793    -5.0294 C.2     
  25 O25            7.5937     1.6864    -5.9815 O.3     
  26 C26            7.9232     2.8825    -5.4682 C.2     
  27 N27            6.8977     1.6909    -3.9445 N.2     
  28 C28            6.4333    -0.4200    -5.1917 C.3     
  29 C29            5.3669    -0.6482    -6.2648 C.3     
  30 C30            6.7900    -1.1682    -6.4777 C.3     
  31 C31           10.0655     7.3398    -0.1115 C.2     
  32 N32           10.9977     7.0669    -1.0459 N.am    
  33 O33           10.2694     8.2082     0.7155 O.2     
  34 C34           12.2564     7.8161    -1.0656 C.3     
  35 C35           13.1310     7.3137    -2.2161 C.3     
  36 C36           14.4456     8.0962    -2.2367 C.3     
  37 N37           15.2830     7.6151    -3.3383 N.am    
  38 C38           16.5577     6.0861    -4.6752 C.3     
  39 C39           16.2522     6.5189    -3.2241 C.3     
  40 C40           15.2584     8.1172    -4.5849 C.2     
  41 C41           16.2430     7.3773    -5.4634 C.3     
  42 O42           14.5494     9.0300    -4.9523 O.2     
  43 O43            8.0534     7.8378     1.8043 O.3     
  44 C44            7.0200     8.0717     2.7631 C.3     
  45 H45            0.0179     0.2876    -0.0233 H       
  46 H46           -2.1257     1.4924     0.0817 H       
  47 H47           -2.1580     3.9517     0.1603 H       
  48 H48            2.1358     1.5403    -0.0590 H       
  49 H49           -0.0223     5.9722     1.1809 H       
  50 H50            0.8157     6.0336    -0.3882 H       
  51 H51           -0.9631     6.0069    -0.3298 H       
  52 H52            2.6027     4.1118     2.1039 H       
  53 H53            3.4601     2.8278     1.2174 H       
  54 H54            3.4191     2.8344    -1.2302 H       
  55 H55            2.5325     4.1229    -2.0806 H       
  56 H56            4.9920     4.5183    -2.1208 H       
  57 H57            4.1345     5.8023    -1.2343 H       
  58 H58            4.1756     5.7958     1.2133 H       
  59 H59            5.0622     4.5072     2.0637 H       
  60 H60            5.8926     6.3764     1.6428 H       
  61 H61            9.3091     5.3673    -1.7923 H       
  62 H62            6.6333     3.0871    -1.7214 H       
  63 H63            8.4387     3.6817    -5.9799 H       
  64 H64            6.3570    -1.0035    -4.2742 H       
  65 H65            4.5892    -1.3822    -6.0535 H       
  66 H66            5.0527     0.2136    -6.8535 H       
  67 H67            7.4120    -0.6484    -7.2064 H       
  68 H68            6.9486    -2.2442    -6.4064 H       
  69 H69           10.8351     6.3743    -1.7053 H       
  70 H70           12.0459     8.8764    -1.2055 H       
  71 H71           12.7803     7.6712    -0.1208 H       
  72 H72           13.3415     6.2534    -2.0762 H       
  73 H73           12.6071     7.4586    -3.1608 H       
  74 H74           14.2351     9.1565    -2.3765 H       
  75 H75           14.9695     7.9513    -1.2919 H       
  76 H76           17.6050     5.8049    -4.7861 H       
  77 H77           15.9020     5.2727    -4.9858 H       
  78 H78           17.1616     6.8688    -2.7354 H       
  79 H79           15.8188     5.6889    -2.6661 H       
  80 H80           17.1479     7.9683    -5.6043 H       
  81 H81           15.7899     7.1363    -6.4250 H       
  82 H82            7.3267     8.8684     3.4408 H       
  83 H83            6.1056     8.3652     2.2475 H       
  84 H84            6.8394     7.1599     3.3324 H       
@<TRIPOS>BOND
   1    1    2 ar
   2    1    6 ar
   3    1   45 1
   4    2    3 ar
   5    2   46 1
   6    3    4 ar
   7    3   47 1
   8    4    5 ar
   9    4    7 1
  10    5    6 ar
  11    5    8 1
  12    6   48 1
  13    7   49 1
  14    7   50 1
  15    7   51 1
  16    8   10 1
  17    8    9 1
  18    9   13 1
  19    9   52 1
  20    9   53 1
  21   10   11 1
  22   10   54 1
  23   10   55 1
  24   11   12 1
  25   11   56 1
  26   11   57 1
  27   12   13 1
  28   12   14 1
  29   13   58 1
  30   13   59 1
  31   14   15 ar
  32   14   19 ar
  33   15   16 ar
  34   15   60 1
  35   16   17 ar
  36   16   43 1
  37   17   18 ar
  38   17   31 1
  39   18   19 ar
  40   18   61 1
  41   19   20 1
  42   20   21 am
  43   20   62 1
  44   21   22 1
  45   21   23 2
  46   22   27 1
  47   22   26 2
  48   24   25 1
  49   24   27 2
  50   24   28 1
  51   25   26 1
  52   26   63 1
  53   28   29 1
  54   28   30 1
  55   28   64 1
  56   29   30 1
  57   29   65 1
  58   29   66 1
  59   30   67 1
  60   30   68 1
  61   31   32 am
  62   31   33 2
  63   32   34 1
  64   32   69 1
  65   34   35 1
  66   34   70 1
  67   34   71 1
  68   35   36 1
  69   35   72 1
  70   35   73 1
  71   36   37 1
  72   36   74 1
  73   36   75 1
  74   37   40 am
  75   37   39 1
  76   38   39 1
  77   38   41 1
  78   38   76 1
  79   38   77 1
  80   39   78 1
  81   39   79 1
  82   40   41 1
  83   40   42 2
  84   41   80 1
  85   41   81 1
  86   43   44 1
  87   44   82 1
  88   44   83 1
  89   44   84 1

#	End of record

