#	Name: ASD06020098
#	Creating user name:	WinNT
#	Creation time:	15. 06. 2019 21:04

#	Modifying user name:	WinNT
#	Modification time:	15. 06. 2019 21:04

#	Program:	/corina/corina34_cracker 3.40 0067  02.08.2006

@<TRIPOS>MOLECULE
ASD06020098
  37   40    0    0    0
SMALL
NO_CHARGES


@<TRIPOS>ATOM
   1 C1            -0.0166     1.3953     0.0022 C.ar    
   2 C2             0.0031    -0.0035     0.0022 C.ar    
   3 C3             1.2300    -0.6764    -0.0207 C.ar    
   4 C4             2.4027     0.1210    -0.0438 C.ar    
   5 C5             2.2924     1.4756    -0.0427 C.ar    
   6 N6             1.1143     2.0791    -0.0192 N.ar    
   7 S7            -1.2858    -1.2018     0.0268 S.3     
   8 C8            -0.0953    -2.4966     0.0047 C.2     
   9 N9             1.1002    -2.0037    -0.0180 N.2     
  10 N10           -1.2335     2.0704     0.0191 N.pl3   
  11 C11           -1.2583     3.4568     0.1318 C.ar    
  12 C12           -2.4695     4.1347     0.0359 C.ar    
  13 C13           -2.4797     5.5131     0.1502 C.ar    
  14 C14           -1.2737     6.1698     0.3574 C.ar    
  15 C15           -0.1089     5.4339     0.4426 C.ar    
  16 N16           -0.1298     4.1189     0.3348 N.ar    
  17 C17           -1.2369     7.6708     0.4874 C.3     
  18 C18           -0.4151    -3.9397     0.0106 C.ar    
  19 C19            0.6118    -4.8861    -0.0085 C.ar    
  20 C20            0.3055    -6.2327    -0.0024 C.ar    
  21 C21           -1.0146    -6.6450     0.0226 C.ar    
  22 C22           -2.0370    -5.7134     0.0412 C.ar    
  23 C23           -1.7456    -4.3634     0.0411 C.ar    
  24 Cl24          -3.0300    -3.1960     0.0717 Cl      
  25 Cl25           2.2693    -4.3709    -0.0405 Cl      
  26 H26            3.3767    -0.3451    -0.0617 H       
  27 H27            3.1900     2.0759    -0.0599 H       
  28 H28           -2.0644     1.5742    -0.0476 H       
  29 H29           -3.3891     3.5921    -0.1260 H       
  30 H30           -3.4046     6.0662     0.0795 H       
  31 H31            0.8312     5.9406     0.6037 H       
  32 H32           -1.3564     7.9478     1.5348 H       
  33 H33           -0.2811     8.0440     0.1196 H       
  34 H34           -2.0466     8.1061    -0.0982 H       
  35 H35            1.0986    -6.9656    -0.0175 H       
  36 H36           -1.2483    -7.6994     0.0273 H       
  37 H37           -3.0654    -6.0425     0.0603 H       
@<TRIPOS>BOND
   1    1    2 ar
   2    1    6 ar
   3    1   10 1
   4    2    3 ar
   5    2    7 1
   6    3    4 ar
   7    3    9 1
   8    4    5 ar
   9    4   26 1
  10    5    6 ar
  11    5   27 1
  12    7    8 1
  13    8    9 2
  14    8   18 1
  15   10   11 1
  16   10   28 1
  17   11   12 ar
  18   11   16 ar
  19   12   13 ar
  20   12   29 1
  21   13   14 ar
  22   13   30 1
  23   14   15 ar
  24   14   17 1
  25   15   16 ar
  26   15   31 1
  27   17   32 1
  28   17   33 1
  29   17   34 1
  30   18   19 ar
  31   18   23 ar
  32   19   20 ar
  33   19   25 1
  34   20   21 ar
  35   20   35 1
  36   21   22 ar
  37   21   36 1
  38   22   23 ar
  39   22   37 1
  40   23   24 1

#	End of record

