#	Name: ASD01840550
#	Creating user name:	WinNT
#	Creation time:	15. 06. 2019 19:37

#	Modifying user name:	WinNT
#	Modification time:	15. 06. 2019 19:37

#	Program:	/corina/corina34_cracker 3.40 0067  02.08.2006

@<TRIPOS>MOLECULE
ASD01840550
  50   53    0    0    0
SMALL
NO_CHARGES


@<TRIPOS>ATOM
   1 C1            -0.0178     1.4608     0.0101 C.3     
   2 N2             0.0021    -0.0041     0.0020 N.pl3   
   3 C3             0.6233    -0.6964     1.0349 C.ar    
   4 N4             1.1909    -0.0273     2.0267 N.ar    
   5 C5             1.7910    -0.6457     3.0263 C.ar    
   6 C6             2.4211     0.1632     4.1306 C.3     
   7 C7             1.8483    -2.0245     3.0733 C.ar    
   8 C8             2.5355    -2.7208     4.2196 C.3     
   9 C9             1.2647    -2.7613     2.0519 C.ar    
  10 C10            1.1541    -4.2421     1.8074 C.3     
  11 N11            0.4211    -4.4318     0.5506 N.am    
  12 C12            0.0940    -3.0945     0.0436 C.3     
  13 C13            0.6392    -2.0882     1.0223 C.ar    
  14 C14            0.1083    -5.6086    -0.0272 C.2     
  15 O15            0.4400    -6.6497     0.4991 O.2     
  16 C16           -0.6538    -5.6308    -1.3271 C.3     
  17 C17           -0.8771    -7.0804    -1.7627 C.3     
  18 C18           -1.9248    -7.7686    -0.8621 C.3     
  19 C19           -3.2507    -7.5506    -1.5591 C.ar    
  20 C20           -4.5450    -7.6606    -1.0799 C.ar    
  21 C21           -5.6183    -7.4099    -1.9128 C.ar    
  22 C22           -5.4003    -7.0480    -3.2288 C.ar    
  23 C23           -4.1095    -6.9378    -3.7087 C.ar    
  24 C24           -3.0326    -7.1887    -2.8755 C.ar    
  25 C25           -1.5454    -7.1388    -3.1527 C.3     
  26 H26            1.0048     1.8381     0.0023 H       
  27 H27           -0.5450     1.8219    -0.8730 H       
  28 H28           -0.5280     1.8123     0.9069 H       
  29 H29           -0.4183    -0.4908    -0.7241 H       
  30 H30            1.6869     0.3387     4.9168 H       
  31 H31            3.2702    -0.3828     4.5418 H       
  32 H32            2.7622     1.1186     3.7320 H       
  33 H33            1.8149    -2.9078     5.0157 H       
  34 H34            2.9490    -3.6683     3.8739 H       
  35 H35            3.3398    -2.0900     4.5983 H       
  36 H36            2.1495    -4.6783     1.7242 H       
  37 H37            0.6106    -4.7124     2.6269 H       
  38 H38            0.5513    -2.9483    -0.9351 H       
  39 H39           -0.9875    -2.9824    -0.0325 H       
  40 H40           -1.6173    -5.1395    -1.1919 H       
  41 H41           -0.0822    -5.1055    -2.0923 H       
  42 H42            0.0625    -7.6329    -1.7609 H       
  43 H43           -1.7114    -8.8343    -0.7800 H       
  44 H44           -1.9362    -7.3072     0.1254 H       
  45 H45           -4.7161    -7.9437    -0.0518 H       
  46 H46           -6.6267    -7.4969    -1.5361 H       
  47 H47           -6.2382    -6.8520    -3.8813 H       
  48 H48           -3.9400    -6.6550    -4.7371 H       
  49 H49           -1.2977    -6.2475    -3.7292 H       
  50 H50           -1.2299    -8.0352    -3.6866 H       
@<TRIPOS>BOND
   1    1    2 1
   2    1   26 1
   3    1   27 1
   4    1   28 1
   5    2    3 1
   6    2   29 1
   7    3   13 ar
   8    3    4 ar
   9    4    5 ar
  10    5    6 1
  11    5    7 ar
  12    6   30 1
  13    6   31 1
  14    6   32 1
  15    7    8 1
  16    7    9 ar
  17    8   33 1
  18    8   34 1
  19    8   35 1
  20    9   13 ar
  21    9   10 1
  22   10   11 1
  23   10   36 1
  24   10   37 1
  25   11   12 1
  26   11   14 am
  27   12   13 1
  28   12   38 1
  29   12   39 1
  30   14   15 2
  31   14   16 1
  32   16   17 1
  33   16   40 1
  34   16   41 1
  35   17   25 1
  36   17   18 1
  37   17   42 1
  38   18   19 1
  39   18   43 1
  40   18   44 1
  41   19   24 ar
  42   19   20 ar
  43   20   21 ar
  44   20   45 1
  45   21   22 ar
  46   21   46 1
  47   22   23 ar
  48   22   47 1
  49   23   24 ar
  50   23   48 1
  51   24   25 1
  52   25   49 1
  53   25   50 1

#	End of record

