#	Name: ASD01200032
#	Creating user name:	WinNT
#	Creation time:	15. 06. 2019 19:08

#	Modifying user name:	WinNT
#	Modification time:	15. 06. 2019 19:08

#	Program:	/corina/corina34_cracker 3.40 0067  02.08.2006

@<TRIPOS>MOLECULE
ASD01200032
  43   46    0    0    0
SMALL
NO_CHARGES


@<TRIPOS>ATOM
   1 C1            -0.0943     1.4319    -0.6181 C.ar    
   2 C2            -0.0530     0.0369    -0.5689 C.ar    
   3 C3            -1.2209    -0.6694    -0.3692 C.ar    
   4 C4            -2.4144     0.0425    -0.2221 C.ar    
   5 C5            -2.3830     1.4413    -0.2821 C.ar    
   6 N6            -1.2324     2.0827    -0.4711 N.ar    
   7 C7            -3.6337     2.2095    -0.1293 C.2     
   8 N8            -3.6088     3.5558    -0.1863 N.am    
   9 C9            -4.7858     4.2788    -0.0424 C.2     
  10 S10           -3.9364    -0.8073     0.0347 S.3     
  11 C11           -3.4774    -2.5006    -0.1288 C.ar    
  12 S12            1.3962     2.3363    -0.8730 S.3     
  13 C13            0.8507     4.0116    -0.8593 C.2     
  14 N14           -4.8725     5.5718    -0.0810 N.2     
  15 C15           -6.0743     6.0948     0.0744 C.2     
  16 C16           -7.0494     5.2015     0.2528 C.2     
  17 S17           -6.3324     3.5930     0.2040 S.3     
  18 N18            1.6310     5.1208    -1.0179 N.pl3   
  19 C19            0.7800     6.1873    -0.9351 C.2     
  20 N20           -0.4183     5.7134    -0.7402 N.2     
  21 N21           -0.3835     4.4292    -0.7002 N.2     
  22 C22           -3.1344    -3.2406     0.9965 C.ar    
  23 C23           -2.7745    -4.5680     0.8678 C.ar    
  24 C24           -2.7541    -5.1635    -0.3791 C.ar    
  25 C25           -3.0957    -4.4295    -1.5069 C.ar    
  26 C26           -3.4632    -3.0995    -1.3820 C.ar    
  27 O27           -4.6867     1.6278     0.0482 O.2     
  28 O28           -3.0746    -5.0168    -2.7323 O.3     
  29 C29           -2.6913    -6.3924    -2.7859 C.3     
  30 H30            0.8854    -0.4846    -0.6865 H       
  31 H31           -1.2132    -1.7486    -0.3280 H       
  32 H32           -2.7688     4.0198    -0.3278 H       
  33 H33           -6.2540     7.1597     0.0586 H       
  34 H34           -8.0960     5.4253     0.3974 H       
  35 H35            2.5902     5.1466    -1.1596 H       
  36 H36            1.0506     7.2297    -1.0162 H       
  37 H37           -3.1488    -2.7774     1.9721 H       
  38 H38           -2.5083    -5.1415     1.7433 H       
  39 H39           -2.4716    -6.2013    -0.4763 H       
  40 H40           -3.7293    -2.5270    -2.2583 H       
  41 H41           -1.6818    -6.5040    -2.3903 H       
  42 H42           -3.3834    -6.9859    -2.1886 H       
  43 H43           -2.7164    -6.7365    -3.8199 H       
@<TRIPOS>BOND
   1    1    2 ar
   2    1   12 1
   3    1    6 ar
   4    2    3 ar
   5    2   30 1
   6    3    4 ar
   7    3   31 1
   8    4    5 ar
   9    4   10 1
  10    5    6 ar
  11    5    7 1
  12    7    8 am
  13    7   27 2
  14    8    9 1
  15    8   32 1
  16    9   14 2
  17    9   17 1
  18   10   11 1
  19   11   22 ar
  20   11   26 ar
  21   12   13 1
  22   13   18 1
  23   13   21 2
  24   14   15 1
  25   15   16 2
  26   15   33 1
  27   16   17 1
  28   16   34 1
  29   18   19 1
  30   18   35 1
  31   19   20 2
  32   19   36 1
  33   20   21 1
  34   22   23 ar
  35   22   37 1
  36   23   24 ar
  37   23   38 1
  38   24   25 ar
  39   24   39 1
  40   25   26 ar
  41   25   28 1
  42   26   40 1
  43   28   29 1
  44   29   41 1
  45   29   42 1
  46   29   43 1

#	End of record

