#	Name: ASD08150067
#	Creating user name:	WinNT
#	Creation time:	15. 06. 2019 21:15

#	Modifying user name:	WinNT
#	Modification time:	15. 06. 2019 21:15

#	Program:	/corina/corina34_cracker 3.40 0067  02.08.2006

@<TRIPOS>MOLECULE
ASD08150067
  58   61    0    0    0
SMALL
NO_CHARGES


@<TRIPOS>ATOM
   1 O1            -0.0161     1.3334     0.0094 O.3     
   2 C2             0.0021    -0.0041     0.0020 C.2     
   3 N3             1.2348    -0.5293    -0.0126 N.am    
   4 C4             2.2183     0.5645    -0.0161 C.3     
   5 C5             1.3508     1.8379    -0.0010 C.3     
   6 O6            -1.0069    -0.6808     0.0084 O.2     
   7 C7             3.0750     0.5128    -1.2827 C.3     
   8 C8             1.6042     2.6745    -1.2567 C.3     
   9 C9             0.7515     3.9437    -1.2046 C.3     
  10 C10            1.0962     4.8390    -2.3965 C.3     
  11 O11           -0.6321     3.5905    -1.2586 O.3     
  12 C12            3.0931    -3.5894     0.0537 C.ar    
  13 N13            2.1556    -4.5191    -0.0405 N.ar    
  14 C14            0.8687    -4.1833    -0.1300 C.ar    
  15 C15            0.5191    -2.8335    -0.1233 C.ar    
  16 C16            1.5353    -1.8872    -0.0227 C.ar    
  17 N17            2.7968    -2.2984     0.0630 N.ar    
  18 C18           -2.0648    -7.1227    -0.4259 C.ar    
  19 N19           -0.7932    -7.4881    -0.3387 N.ar    
  20 C20            0.1662    -6.5856    -0.2436 C.ar    
  21 C21           -0.1757    -5.2298    -0.2357 C.ar    
  22 C22           -1.5274    -4.8864    -0.3295 C.ar    
  23 N23           -2.4284    -5.8480    -0.4217 N.ar    
  24 C24            1.6086    -7.0108    -0.1445 C.3     
  25 F25            1.6962    -8.3997    -0.2873 F       
  26 F26            2.3483    -6.3903    -1.1569 F       
  27 F27            2.1202    -6.6371     1.1028 F       
  28 O28            6.6214    -5.2471     1.3426 O.3     
  29 C29            6.0235    -5.8241     0.1785 C.3     
  30 C30            4.5419    -5.4416     0.1295 C.3     
  31 N31            4.4183    -3.9768     0.1507 N.3     
  32 C32            5.0433    -3.4188     1.3588 C.3     
  33 C33            6.5198    -3.8216     1.3955 C.3     
  34 N34           -3.0382    -8.0984    -0.5298 N.pl3   
  35 H35            2.8457     0.5180     0.8740 H       
  36 H36            1.5485     2.4243     0.8964 H       
  37 H37            2.4317     0.5848    -2.1596 H       
  38 H38            3.7791     1.3449    -1.2792 H       
  39 H39            3.6246    -0.4281    -1.3115 H       
  40 H40            2.6586     2.9469    -1.3051 H       
  41 H41            1.3380     2.0939    -2.1399 H       
  42 H42            0.9538     4.4796    -0.2772 H       
  43 H43            0.4886     5.7432    -2.3594 H       
  44 H44            2.1515     5.1084    -2.3553 H       
  45 H45            0.8939     4.3031    -3.3239 H       
  46 H46           -1.2328     4.3478    -1.2298 H       
  47 H47           -0.5148    -2.5295    -0.1947 H       
  48 H48           -1.8308    -3.8499    -0.3269 H       
  49 H49            6.5261    -5.4486    -0.7129 H       
  50 H50            6.1181    -6.9091     0.2206 H       
  51 H51            4.0955    -5.8313    -0.7854 H       
  52 H52            4.0285    -5.8627     0.9938 H       
  53 H53            4.9628    -2.3319     1.3413 H       
  54 H54            4.5378    -3.8076     2.2428 H       
  55 H55            6.9734    -3.4583     2.3177 H       
  56 H56            7.0368    -3.3878     0.5395 H       
  57 H57           -2.7869    -9.0352    -0.5382 H       
  58 H58           -3.9726    -7.8462    -0.5944 H       
@<TRIPOS>BOND
   1    1    2 1
   2    1    5 1
   3    2    3 am
   4    2    6 2
   5    3    4 1
   6    3   16 1
   7    4    5 1
   8    4    7 1
   9    4   35 1
  10    5    8 1
  11    5   36 1
  12    7   37 1
  13    7   38 1
  14    7   39 1
  15    8    9 1
  16    8   40 1
  17    8   41 1
  18    9   10 1
  19    9   11 1
  20    9   42 1
  21   10   43 1
  22   10   44 1
  23   10   45 1
  24   11   46 1
  25   12   13 ar
  26   12   17 ar
  27   12   31 1
  28   13   14 ar
  29   14   15 ar
  30   14   21 1
  31   15   16 ar
  32   15   47 1
  33   16   17 ar
  34   18   19 ar
  35   18   23 ar
  36   18   34 1
  37   19   20 ar
  38   20   21 ar
  39   20   24 1
  40   21   22 ar
  41   22   23 ar
  42   22   48 1
  43   24   25 1
  44   24   26 1
  45   24   27 1
  46   28   29 1
  47   28   33 1
  48   29   30 1
  49   29   49 1
  50   29   50 1
  51   30   31 1
  52   30   51 1
  53   30   52 1
  54   31   32 1
  55   32   33 1
  56   32   53 1
  57   32   54 1
  58   33   55 1
  59   33   56 1
  60   34   57 1
  61   34   58 1

#	End of record

