#	Name: ASD05872042
#	Creating user name:	WinNT
#	Creation time:	15. 06. 2019 21:04

#	Modifying user name:	WinNT
#	Modification time:	15. 06. 2019 21:04

#	Program:	/corina/corina34_cracker 3.40 0067  02.08.2006

@<TRIPOS>MOLECULE
ASD05872042
  64   67    0    0    0
SMALL
NO_CHARGES


@<TRIPOS>ATOM
   1 C1             0.0221     2.1857     1.3545 C.ar    
   2 C2            -0.0716     0.9265     1.9273 C.ar    
   3 C3            -1.3165     0.3552     2.1427 C.ar    
   4 C4            -2.4671     1.0422     1.7858 C.ar    
   5 C5            -2.3763     2.2980     1.2144 C.ar    
   6 C6            -1.1358     2.8756     1.0018 C.ar    
   7 N7             1.2786     2.7658     1.1360 N.am    
   8 C8             2.3609     1.9823     0.9591 C.2     
   9 O9             2.2619     0.7781     1.0658 O.2     
  10 C10            3.6941     2.6024     0.6286 C.3     
  11 S11            4.9385     1.2998     0.4536 S.3     
  12 C12            6.3553     2.2784     0.0798 C.2     
  13 N13            7.6189     1.8170    -0.1590 N.pl3   
  14 N14            6.3922     3.5874    -0.0270 N.2     
  15 N15            7.5850     3.9739    -0.3087 N.2     
  16 C16            8.3824     2.9353    -0.4025 C.2     
  17 C17            9.8277     2.9623    -0.7113 C.ar    
  18 C18           10.6299     1.8620    -0.4033 C.ar    
  19 C19           10.3931     4.0859    -1.3168 C.ar    
  20 C20           11.7414     4.1072    -1.6031 C.ar    
  21 C21           12.5369     3.0128    -1.2904 C.ar    
  22 C22           11.9773     1.8911    -0.6928 C.ar    
  23 C23            8.0675     0.4224    -0.1557 C.3     
  24 C24            8.3841    -0.0001     1.2558 C.2     
  25 C25            7.5471    -0.6404     2.0918 C.2     
  26 C26            8.2498    -0.8387     3.3025 C.2     
  27 C27            9.4741    -0.3077     3.1340 C.2     
  28 O28            9.5518     0.1936     1.8904 O.3     
  29 O29           -1.0475     4.1115     0.4399 O.3     
  30 C30           -1.9766     6.1252    -0.5205 C.3     
  31 C31           -2.2750     4.7560     0.0937 C.3     
  32 O32           -1.4093    -0.8799     2.7040 O.3     
  33 C33           -2.6267    -2.7951     3.5350 C.3     
  34 C34           -2.7231    -1.4078     2.8971 C.3     
  35 O35           13.8653     3.0374    -1.5747 O.3     
  36 S36           14.7284     3.5940    -0.4514 S.o2    
  37 O37           16.0311     3.8866    -1.0291 O.co2   
  38 O38           14.0640     4.7941     0.0329 O.co2   
  39 O39           14.8039     2.5616     0.5706 O.co2   
  40 H40            0.8243     0.3910     2.2051 H       
  41 H41           -3.4358     0.5953     1.9541 H       
  42 H42           -3.2740     2.8307     0.9370 H       
  43 H43            1.3696     3.7312     1.1122 H       
  44 H44            3.6150     3.1572    -0.3063 H       
  45 H45            3.9880     3.2804     1.4298 H       
  46 H46           10.1954     0.9893     0.0615 H       
  47 H47            9.7750     4.9372    -1.5610 H       
  48 H48           12.1796     4.9761    -2.0716 H       
  49 H49           12.5993     1.0419    -0.4512 H       
  50 H50            7.2788    -0.2140    -0.5572 H       
  51 H51            8.9610     0.3266    -0.7727 H       
  52 H52            6.5328    -0.9442     1.8791 H       
  53 H53            7.8752    -1.3232     4.1921 H       
  54 H54           10.2623    -0.2909     3.8721 H       
  55 H55           -1.3684     5.9970    -1.4159 H       
  56 H56           -2.9129     6.6168    -0.7845 H       
  57 H57           -1.4359     6.7372     0.2015 H       
  58 H58           -2.8157     4.1440    -0.6282 H       
  59 H59           -2.8832     4.8842     0.9891 H       
  60 H60           -2.1210    -2.7181     4.4975 H       
  61 H61           -3.6288    -3.1977     3.6822 H       
  62 H62           -2.0615    -3.4578     2.8796 H       
  63 H63           -3.2883    -0.7450     3.5524 H       
  64 H64           -3.2288    -1.4848     1.9345 H       
@<TRIPOS>BOND
   1    1    2 ar
   2    1    7 1
   3    1    6 ar
   4    2    3 ar
   5    2   40 1
   6    3    4 ar
   7    3   32 1
   8    4    5 ar
   9    4   41 1
  10    5    6 ar
  11    5   42 1
  12    6   29 1
  13    7    8 am
  14    7   43 1
  15    8    9 2
  16    8   10 1
  17   10   11 1
  18   10   44 1
  19   10   45 1
  20   11   12 1
  21   12   13 1
  22   12   14 2
  23   13   23 1
  24   13   16 1
  25   14   15 1
  26   15   16 2
  27   16   17 1
  28   17   18 ar
  29   17   19 ar
  30   18   22 ar
  31   18   46 1
  32   19   20 ar
  33   19   47 1
  34   20   21 ar
  35   20   48 1
  36   21   22 ar
  37   21   35 1
  38   22   49 1
  39   23   24 1
  40   23   50 1
  41   23   51 1
  42   24   25 2
  43   24   28 1
  44   25   26 1
  45   25   52 1
  46   26   27 2
  47   26   53 1
  48   27   28 1
  49   27   54 1
  50   29   31 1
  51   30   31 1
  52   30   55 1
  53   30   56 1
  54   30   57 1
  55   31   58 1
  56   31   59 1
  57   32   34 1
  58   33   34 1
  59   33   60 1
  60   33   61 1
  61   33   62 1
  62   34   63 1
  63   34   64 1
  64   35   36 1
  65   36   37 ar
  66   36   38 ar
  67   36   39 ar

#	End of record

