#	Name: ASD09116382
#	Creating user name:	WinNT
#	Creation time:	15. 06. 2019 21:21

#	Modifying user name:	WinNT
#	Modification time:	15. 06. 2019 21:21

#	Program:	/corina/corina34_cracker 3.40 0067  02.08.2006

@<TRIPOS>MOLECULE
ASD09116382
  74   80    0    0    0
SMALL
NO_CHARGES


@<TRIPOS>ATOM
   1 N1            -0.0387     1.4225    -0.5616 N.2     
   2 N2            -0.0607     0.0717    -0.9442 N.pl3   
   3 C3             1.2183     1.7970    -0.5511 C.2     
   4 N4             1.9854     0.7592    -0.9051 N.2     
   5 C5             1.2283    -0.2898    -1.1456 C.2     
   6 N6             1.6708    -1.5398    -1.5344 N.pl3   
   7 C7            -1.1886    -0.7383    -1.0885 C.ar    
   8 N8             1.6808     3.0716    -0.2243 N.pl3   
   9 C9             3.0569     3.3177    -0.1436 C.ar    
  10 C10            3.5598     4.5680    -0.4806 C.ar    
  11 C11            3.9179     2.3138     0.2787 C.ar    
  12 C12            5.2758     2.5558     0.3591 C.ar    
  13 C13            5.7803     3.8023     0.0174 C.ar    
  14 C14            4.9180     4.8104    -0.4008 C.ar    
  15 N15           -1.1512    -1.7884    -1.8951 N.ar    
  16 N16           -2.1641    -2.5602    -2.0706 N.ar    
  17 C17           -3.3139    -2.3476    -1.4508 C.ar    
  18 C18           -3.4401    -1.2750    -0.5635 C.ar    
  19 C19           -2.3551    -0.4447    -0.3776 C.ar    
  20 C20           -4.4988    -3.2031    -1.6925 C.ar    
  21 C21           -5.7222    -2.5956    -1.9796 C.ar    
  22 C22           -5.7937    -1.0973    -2.0910 C.3     
  23 C23           -5.7826    -0.4355    -0.7157 C.3     
  24 C24           -4.7267    -1.0735     0.1830 C.3     
  25 C25           -4.4075    -4.5893    -1.6329 C.ar    
  26 C26           -5.5361    -5.3584    -1.8403 C.ar    
  27 C27           -6.7509    -4.7518    -2.1035 C.ar    
  28 C28           -6.8442    -3.3725    -2.1726 C.ar    
  29 N29            7.1576     4.0475     0.0995 N.3     
  30 C30            7.6286     3.9468     1.4878 C.3     
  31 C31            7.9079     3.1360    -0.7756 C.3     
  32 C32            9.3963     3.4876    -0.7180 C.3     
  33 N33            9.8674     3.3868     0.6704 N.3     
  34 C34            9.1171     4.2984     1.5455 C.3     
  35 C35           11.3111     3.6438     0.7565 C.3     
  36 C36           11.7858     3.5023     2.2133 C.3     
  37 C37           12.8317     2.3683     2.2278 C.3     
  38 C38           13.3605     2.3208     0.7727 C.3     
  39 C39           12.0851     2.5910    -0.0635 C.3     
  40 F40            5.4086     6.0244    -0.7337 F       
  41 H41            2.6195    -1.7032    -1.6532 H       
  42 H42            1.0327    -2.2540    -1.6885 H       
  43 H43            1.0492     3.7876    -0.0529 H       
  44 H44            2.8896     5.3502    -0.8052 H       
  45 H45            3.5260     1.3432     0.5449 H       
  46 H46            5.9448     1.7745     0.6884 H       
  47 H47           -2.4074     0.4054     0.2864 H       
  48 H48           -4.9383    -0.7412    -2.6650 H       
  49 H49           -6.7108    -0.8218    -2.6118 H       
  50 H50           -5.5627     0.6260    -0.8300 H       
  51 H51           -6.7634    -0.5503    -0.2543 H       
  52 H52           -5.0915    -2.0383     0.5354 H       
  53 H53           -4.5460    -0.4247     1.0400 H       
  54 H54           -3.4589    -5.0623    -1.4258 H       
  55 H55           -5.4697    -6.4355    -1.7973 H       
  56 H56           -7.6318    -5.3579    -2.2560 H       
  57 H57           -7.7960    -2.9052    -2.3777 H       
  58 H58            7.0667     4.6401     2.1137 H       
  59 H59            7.4811     2.9290     1.8489 H       
  60 H60            7.7635     2.1089    -0.4402 H       
  61 H61            7.5495     3.2381    -1.8000 H       
  62 H62            9.9583     2.7943    -1.3438 H       
  63 H63            9.5438     4.5054    -1.0791 H       
  64 H64            9.2614     5.3254     1.2101 H       
  65 H65            9.4755     4.1962     2.5698 H       
  66 H66           11.5347     4.6445     0.3865 H       
  67 H67           12.2405     4.4339     2.5500 H       
  68 H68           10.9449     3.2429     2.8565 H       
  69 H69           13.6401     2.6038     2.9200 H       
  70 H70           12.3635     1.4209     2.4947 H       
  71 H71           14.1040     3.1003     0.6063 H       
  72 H72           13.7719     1.3378     0.5432 H       
  73 H73           11.4963     1.6795    -0.1666 H       
  74 H74           12.3487     2.9890    -1.0434 H       
@<TRIPOS>BOND
   1    1    2 1
   2    1    3 2
   3    2    7 1
   4    2    5 1
   5    3    4 1
   6    3    8 1
   7    4    5 2
   8    5    6 1
   9    6   41 1
  10    6   42 1
  11    7   15 ar
  12    7   19 ar
  13    8    9 1
  14    8   43 1
  15    9   10 ar
  16    9   11 ar
  17   10   14 ar
  18   10   44 1
  19   11   12 ar
  20   11   45 1
  21   12   13 ar
  22   12   46 1
  23   13   14 ar
  24   13   29 1
  25   14   40 1
  26   15   16 ar
  27   16   17 ar
  28   17   18 ar
  29   17   20 1
  30   18   19 ar
  31   18   24 1
  32   19   47 1
  33   20   21 ar
  34   20   25 ar
  35   21   22 1
  36   21   28 ar
  37   22   23 1
  38   22   48 1
  39   22   49 1
  40   23   24 1
  41   23   50 1
  42   23   51 1
  43   24   52 1
  44   24   53 1
  45   25   26 ar
  46   25   54 1
  47   26   27 ar
  48   26   55 1
  49   27   28 ar
  50   27   56 1
  51   28   57 1
  52   29   31 1
  53   29   30 1
  54   30   34 1
  55   30   58 1
  56   30   59 1
  57   31   32 1
  58   31   60 1
  59   31   61 1
  60   32   33 1
  61   32   62 1
  62   32   63 1
  63   33   34 1
  64   33   35 1
  65   34   64 1
  66   34   65 1
  67   35   36 1
  68   35   39 1
  69   35   66 1
  70   36   37 1
  71   36   67 1
  72   36   68 1
  73   37   38 1
  74   37   69 1
  75   37   70 1
  76   38   39 1
  77   38   71 1
  78   38   72 1
  79   39   73 1
  80   39   74 1

#	End of record

