#	Name: ASD08150538
#	Creating user name:	WinNT
#	Creation time:	15. 06. 2019 21:16

#	Modifying user name:	WinNT
#	Modification time:	15. 06. 2019 21:16

#	Program:	/corina/corina34_cracker 3.40 0067  02.08.2006

@<TRIPOS>MOLECULE
ASD08150538
  57   62    0    0    0
SMALL
NO_CHARGES


@<TRIPOS>ATOM
   1 N1             0.3747     1.9750    -2.7665 N.am    
   2 C2             0.4923     0.7884    -3.3933 C.2     
   3 C3             1.7041     0.0693    -3.3600 C.2     
   4 C4             2.7757     0.5671    -2.6917 C.2     
   5 C5             2.6557     1.8154    -2.0315 C.ar    
   6 C6             3.7364     2.3767    -1.3246 C.ar    
   7 N7             3.6231     3.5286    -0.7169 N.ar    
   8 C8             2.4840     4.2377    -0.7295 C.ar    
   9 C9             1.3452     3.7495    -1.4162 C.ar    
  10 C10            1.4348     2.5056    -2.0838 C.ar    
  11 C11            0.1183     5.7088    -0.7553 C.ar    
  12 C12            1.2488     6.1855    -0.0781 C.ar    
  13 C13            2.4062     5.4711    -0.0624 C.ar    
  14 O14           -0.4627     0.3300    -3.9973 O.2     
  15 C15           -0.8391     2.6728    -2.8190 C.ar    
  16 C16           -1.1213     3.4943    -3.9026 C.ar    
  17 C17           -2.3180     4.1823    -3.9543 C.ar    
  18 C18           -3.2392     4.0519    -2.9216 C.ar    
  19 C19           -2.9560     3.2301    -1.8383 C.ar    
  20 C20           -1.7623     2.5384    -1.7900 C.ar    
  21 C21            0.1628     4.4962    -1.4227 C.ar    
  22 C22           -1.1329     6.5076    -0.7573 C.2     
  23 C23           -1.2220     7.8665    -0.8428 C.2     
  24 N24           -4.4510     4.7486    -2.9730 N.3     
  25 Cl25          -2.6711     5.2097    -5.3083 Cl      
  26 C26           -4.2230     6.1891    -3.1533 C.3     
  27 C27           -5.2573     4.4923    -1.7715 C.3     
  28 C28           -6.6045     5.2068    -1.9024 C.3     
  29 N29           -6.3765     6.6473    -2.0827 N.3     
  30 C30           -5.5702     6.9037    -3.2842 C.3     
  31 N31           -2.5301     8.1923    -0.8120 N.pl3   
  32 N32           -3.2730     7.0103    -0.7049 N.2     
  33 C33           -2.4445     6.0002    -0.6774 C.2     
  34 C34           -3.0792     9.5488    -0.8783 C.3     
  35 H35            1.7803    -0.8810    -3.8676 H       
  36 H36            3.7062     0.0196    -2.6631 H       
  37 H37            4.6760     1.8458    -1.2834 H       
  38 H38            1.2005     7.1329     0.4381 H       
  39 H39            3.2677     5.8533     0.4648 H       
  40 H40           -0.4051     3.5955    -4.7046 H       
  41 H41           -3.6716     3.1287    -1.0358 H       
  42 H42           -1.5424     1.8994    -0.9475 H       
  43 H43           -0.7090     4.1301    -1.9445 H       
  44 H44           -0.3946     8.5563    -0.9204 H       
  45 H45           -3.6848     6.5829    -2.2911 H       
  46 H46           -3.6347     6.3540    -4.0560 H       
  47 H47           -5.4231     3.4200    -1.6667 H       
  48 H48           -4.7309     4.8667    -0.8935 H       
  49 H49           -7.1427     4.8131    -2.7646 H       
  50 H50           -7.1928     5.0419    -0.9997 H       
  51 H51           -7.2506     7.1499    -2.1198 H       
  52 H52           -5.4044     7.9759    -3.3890 H       
  53 H53           -6.0966     6.5292    -4.1621 H       
  54 H54           -2.7176     4.9581    -0.5997 H       
  55 H55           -3.2561     9.8188    -1.9194 H       
  56 H56           -4.0194     9.5875    -0.3281 H       
  57 H57           -2.3707    10.2496    -0.4366 H       
@<TRIPOS>BOND
   1    1    2 am
   2    1   10 1
   3    1   15 1
   4    2    3 1
   5    2   14 2
   6    3    4 2
   7    3   35 1
   8    4    5 1
   9    4   36 1
  10    5    6 ar
  11    5   10 ar
  12    6    7 ar
  13    6   37 1
  14    7    8 ar
  15    8    9 ar
  16    8   13 ar
  17    9   10 ar
  18    9   21 ar
  19   11   12 ar
  20   11   22 1
  21   11   21 ar
  22   12   13 ar
  23   12   38 1
  24   13   39 1
  25   15   16 ar
  26   15   20 ar
  27   16   17 ar
  28   16   40 1
  29   17   18 ar
  30   17   25 1
  31   18   19 ar
  32   18   24 1
  33   19   20 ar
  34   19   41 1
  35   20   42 1
  36   21   43 1
  37   22   23 2
  38   22   33 1
  39   23   31 1
  40   23   44 1
  41   24   26 1
  42   24   27 1
  43   26   30 1
  44   26   45 1
  45   26   46 1
  46   27   28 1
  47   27   47 1
  48   27   48 1
  49   28   29 1
  50   28   49 1
  51   28   50 1
  52   29   30 1
  53   29   51 1
  54   30   52 1
  55   30   53 1
  56   31   32 1
  57   31   34 1
  58   32   33 2
  59   33   54 1
  60   34   55 1
  61   34   56 1
  62   34   57 1

#	End of record

