#	Name: ASD07931835
#	Creating user name:	WinNT
#	Creation time:	15. 06. 2019 21:13

#	Modifying user name:	WinNT
#	Modification time:	15. 06. 2019 21:13

#	Program:	/corina/corina34_cracker 3.40 0067  02.08.2006

@<TRIPOS>MOLECULE
ASD07931835
  19   19    0    0    0
SMALL
NO_CHARGES


@<TRIPOS>ATOM
   1 C1            -0.0155     1.2893     0.0091 C.2     
   2 N2             0.0021    -0.0041     0.0020 N.2     
   3 O3            -1.2144    -0.7287     0.0097 O.3     
   4 C4             1.2527     2.0447     0.0011 C.ar    
   5 C5             1.2371     3.4411     0.0087 C.ar    
   6 C6             2.4251     4.1410     0.0011 C.ar    
   7 C7             3.6323     3.4620    -0.0141 C.ar    
   8 C8             3.6544     2.0775    -0.0222 C.ar    
   9 C9             2.4728     1.3660    -0.0084 C.ar    
  10 C10            2.4101     5.6479     0.0088 C.3     
  11 F11            1.0866     6.1010     0.0235 F       
  12 F12            3.0756     6.1151     1.1473 F       
  13 F13            3.0541     6.1266    -1.1371 F       
  14 Cl14           5.1237     4.3504    -0.0237 Cl      
  15 H15           -0.9580     1.8165     0.0165 H       
  16 H16           -1.1003    -1.6889     0.0035 H       
  17 H17            0.2965     3.9716     0.0202 H       
  18 H18            4.5988     1.5537    -0.0345 H       
  19 H19            2.4913     0.2861    -0.0096 H       
@<TRIPOS>BOND
   1    1    2 2
   2    1    4 1
   3    1   15 1
   4    2    3 1
   5    3   16 1
   6    4    5 ar
   7    4    9 ar
   8    5    6 ar
   9    5   17 1
  10    6    7 ar
  11    6   10 1
  12    7    8 ar
  13    7   14 1
  14    8    9 ar
  15    8   18 1
  16    9   19 1
  17   10   11 1
  18   10   12 1
  19   10   13 1

#	End of record

