#	Name: ASD03330868
#	Creating user name:	WinNT
#	Creation time:	15. 06. 2019 20:38

#	Modifying user name:	WinNT
#	Modification time:	15. 06. 2019 20:38

#	Program:	/corina/corina34_cracker 3.40 0067  02.08.2006

@<TRIPOS>MOLECULE
ASD03330868
  57   59    0    0    0
SMALL
NO_CHARGES


@<TRIPOS>ATOM
   1 C1            -0.0451     1.5384     0.0593 C.2     
   2 C2            -0.0103     0.0524     0.3069 C.3     
   3 N3             1.0698     2.3241     0.0177 N.pl3   
   4 N4             1.3759    -0.4091     0.1100 N.3     
   5 C5             2.3249     0.4229     0.8629 C.3     
   6 C6             2.4279     1.8101     0.2155 C.3     
   7 C7             0.6632     3.5970    -0.2282 C.2     
   8 N8            -0.6472     3.6044    -0.3317 N.2     
   9 C9            -1.1120     2.3450    -0.1634 C.2     
  10 C10           -2.5240     1.9258    -0.2105 C.2     
  11 O11           -2.8176     0.7579    -0.0403 O.2     
  12 N12           -3.4899     2.8367    -0.4423 N.am    
  13 C13            1.5155    -1.8259     0.4721 C.3     
  14 C14           -5.6794     3.3951    -1.3275 C.2     
  15 C15           -4.8936     2.4200    -0.4891 C.3     
  16 C16           -5.4648     2.3916     0.9300 C.3     
  17 C17           -5.3929     3.7942     1.5369 C.3     
  18 O18           -5.3216     4.5511    -1.4083 O.2     
  19 N19           -6.7798     2.9826    -1.9873 N.am    
  20 C20           -7.5998     3.9500    -2.7208 C.3     
  21 C21           -6.9228     1.9301     0.8837 C.3     
  22 C22           -4.6500     1.4220     1.7884 C.3     
  23 C23            1.5466     4.7764    -0.3577 C.ar    
  24 C24            2.9120     4.6059    -0.5907 C.ar    
  25 C25            3.7320     5.7104    -0.7112 C.ar    
  26 C26            3.1993     6.9875    -0.6009 C.ar    
  27 C27            1.8447     7.1599    -0.3698 C.ar    
  28 C28            1.0166     6.0625    -0.2532 C.ar    
  29 F29            4.0048     8.0656    -0.7190 F       
  30 F30            5.0542     5.5478    -0.9363 F       
  31 H31           -0.3274    -0.1586     1.3281 H       
  32 H32           -0.6708    -0.4540    -0.3970 H       
  33 H33            1.9785     0.5275     1.8910 H       
  34 H34            3.3058    -0.0525     0.8588 H       
  35 H35            2.9349     1.7311    -0.7462 H       
  36 H36            2.9833     2.4810     0.8708 H       
  37 H37           -3.2557     3.7682    -0.5781 H       
  38 H38            0.8548    -2.4273    -0.1524 H       
  39 H39            2.5475    -2.1405     0.3174 H       
  40 H40            1.2475    -1.9612     1.5199 H       
  41 H41           -4.9628     1.4249    -0.9286 H       
  42 H42           -5.9734     4.4849     0.9253 H       
  43 H43           -5.7998     3.7740     2.5479 H       
  44 H44           -4.3542     4.1230     1.5698 H       
  45 H45           -7.0288     2.0452    -1.9766 H       
  46 H46           -8.4399     3.4349    -3.1866 H       
  47 H47           -7.9745     4.7059    -2.0307 H       
  48 H48           -6.9951     4.4289    -3.4909 H       
  49 H49           -6.9696     0.9121     0.4970 H       
  50 H50           -7.3444     1.9567     1.8886 H       
  51 H51           -7.4932     2.5926     0.2327 H       
  52 H52           -3.6112     1.7508     1.8213 H       
  53 H53           -5.0569     1.4018     2.7994 H       
  54 H54           -4.7012     0.4228     1.3560 H       
  55 H55            3.3264     3.6123    -0.6761 H       
  56 H56            1.4350     8.1556    -0.2847 H       
  57 H57           -0.0402     6.1990    -0.0770 H       
@<TRIPOS>BOND
   1    1    2 1
   2    1    3 1
   3    1    9 2
   4    2    4 1
   5    2   31 1
   6    2   32 1
   7    3    6 1
   8    3    7 1
   9    4    5 1
  10    4   13 1
  11    5    6 1
  12    5   33 1
  13    5   34 1
  14    6   35 1
  15    6   36 1
  16    7    8 2
  17    7   23 1
  18    8    9 1
  19    9   10 1
  20   10   11 2
  21   10   12 am
  22   12   15 1
  23   12   37 1
  24   13   38 1
  25   13   39 1
  26   13   40 1
  27   14   18 2
  28   14   19 am
  29   14   15 1
  30   15   16 1
  31   15   41 1
  32   16   17 1
  33   16   21 1
  34   16   22 1
  35   17   42 1
  36   17   43 1
  37   17   44 1
  38   19   20 1
  39   19   45 1
  40   20   46 1
  41   20   47 1
  42   20   48 1
  43   21   49 1
  44   21   50 1
  45   21   51 1
  46   22   52 1
  47   22   53 1
  48   22   54 1
  49   23   24 ar
  50   23   28 ar
  51   24   25 ar
  52   24   55 1
  53   25   26 ar
  54   25   30 1
  55   26   27 ar
  56   26   29 1
  57   27   28 ar
  58   27   56 1
  59   28   57 1

#	End of record

