#	Name: ASD01320056
#	Creating user name:	WinNT
#	Creation time:	15. 06. 2019 19:15

#	Modifying user name:	WinNT
#	Modification time:	15. 06. 2019 19:15

#	Program:	/corina/corina34_cracker 3.40 0067  02.08.2006

@<TRIPOS>MOLECULE
ASD01320056
 144  150    0    0    0
SMALL
NO_CHARGES


@<TRIPOS>ATOM
   1 C1             1.3629    -2.3456     3.8724 C.3     
   2 C2             1.1771    -3.8364     3.5829 C.3     
   3 C3            -0.3113    -4.1385     3.3982 C.3     
   4 C4            -0.4971    -5.6293     3.1087 C.3     
   5 C5            -1.9855    -5.9314     2.9240 C.3     
   6 C6            -2.1713    -7.4222     2.6345 C.3     
   7 C7            -3.6598    -7.7243     2.4497 C.3     
   8 C8            -3.8455    -9.2151     2.1602 C.3     
   9 C9            -5.3340    -9.5172     1.9755 C.3     
  10 C10           -5.5197   -11.0080     1.6860 C.3     
  11 C11           -7.0082   -11.3101     1.5012 C.3     
  12 C12           -7.1912   -12.7785     1.2161 C.2     
  13 O13           -6.2297   -13.5086     1.1658 O.2     
  14 O14           -8.4222   -13.2754     1.0180 O.3     
  15 C15           -8.5231   -14.6986     0.7483 C.3     
  16 C16           -9.9702   -15.0717     0.5541 C.2     
  17 N17          -10.4540   -16.2904     0.2891 N.2     
  18 N18          -11.7345   -16.2178     0.1909 N.2     
  19 N19          -12.1262   -15.0061     0.3785 N.pl3   
  20 C20          -11.0366   -14.2408     0.6193 C.2     
  21 C21          -13.5137   -14.5373     0.3428 C.3     
  22 C22          -14.1417   -14.9263    -0.9707 C.2     
  23 O23          -13.4966   -15.5329    -1.7927 O.2     
  24 O24          -15.4179   -14.5988    -1.2275 O.3     
  25 C25          -15.9585   -15.0069    -2.5161 C.3     
  26 C26          -16.5806   -16.3910    -2.3872 C.3     
  27 C27          -17.2127   -16.8148    -3.7095 C.3     
  28 C28          -18.3511   -15.8436    -4.0734 C.3     
  29 C29          -17.7707   -14.4397    -4.1748 C.3     
  30 C30          -16.9709   -13.9618    -2.9862 C.3     
  31 C31          -17.8468   -13.5196    -1.8151 C.3     
  32 C32          -16.1455   -12.7261    -3.4249 C.3     
  33 C33          -18.8688   -13.4629    -4.5950 C.3     
  34 C34          -19.2491   -13.8219    -6.0431 C.3     
  35 C35          -19.8120   -15.2385    -6.1091 C.3     
  36 C36          -18.8921   -16.2525    -5.4439 C.3     
  37 C37          -19.5938   -17.6086    -5.3750 C.3     
  38 C38          -20.0977   -17.9817    -6.7428 C.2     
  39 C39          -20.2901   -17.1260    -7.7025 C.2     
  40 C40          -20.0374   -15.6482    -7.5688 C.3     
  41 C41          -18.7470   -15.3690    -8.3550 C.3     
  42 C42          -21.1427   -14.8255    -8.2143 C.3     
  43 C43          -21.5237   -15.3559    -9.5971 C.3     
  44 C44          -21.9483   -16.8239    -9.5115 C.3     
  45 C45          -20.7438   -17.6446    -9.0548 C.3     
  46 C46          -21.0865   -19.1240    -8.9883 C.3     
  47 C47          -21.5830   -19.6343   -10.3403 C.3     
  48 C48          -20.4393   -19.6236   -11.3571 C.3     
  49 C49          -22.0648   -21.0841   -10.1691 C.3     
  50 C50          -22.7453   -18.7926   -10.8553 C.3     
  51 C51          -22.4020   -17.3081   -10.8881 C.3     
  52 C52          -23.0841   -16.9595    -8.5334 C.2     
  53 O53          -22.9609   -17.6619    -7.5581 O.2     
  54 O54          -24.2339   -16.3000    -8.7446 O.3     
  55 C55          -25.2862   -16.4776    -7.7600 C.3     
  56 C56          -26.4916   -15.6671    -8.1611 C.ar    
  57 C57          -27.4663   -16.2290    -8.9644 C.ar    
  58 C58          -28.5720   -15.4854    -9.3324 C.ar    
  59 C59          -28.7032   -14.1801    -8.8968 C.ar    
  60 C60          -27.7290   -13.6184    -8.0928 C.ar    
  61 C61          -26.6254   -14.3634    -7.7213 C.ar    
  62 C62          -21.1859   -15.2428    -5.4182 C.3     
  63 C63          -19.4236   -15.9584    -2.9957 C.3     
  64 H64            2.4233    -2.1304     4.0040 H       
  65 H65            0.9747    -1.7622     3.0375 H       
  66 H66            0.8231    -2.0821     4.7820 H       
  67 H67            1.7170    -4.1000     2.6734 H       
  68 H68            1.5654    -4.4198     4.4178 H       
  69 H69           -0.8512    -3.8750     4.3077 H       
  70 H70           -0.6996    -3.5551     2.5633 H       
  71 H71            0.0428    -5.8929     2.1992 H       
  72 H72           -0.1088    -6.2127     3.9436 H       
  73 H73           -2.5254    -5.6679     3.8335 H       
  74 H74           -2.3738    -5.3480     2.0891 H       
  75 H75           -1.6315    -7.6858     1.7249 H       
  76 H76           -1.7831    -8.0056     3.4694 H       
  77 H77           -4.1996    -7.4608     3.3592 H       
  78 H78           -4.0480    -7.1409     1.6148 H       
  79 H79           -3.3057    -9.4787     1.2507 H       
  80 H80           -3.4573    -9.7985     2.9951 H       
  81 H81           -5.8738    -9.2537     2.8850 H       
  82 H82           -5.7222    -8.9338     1.1406 H       
  83 H83           -4.9799   -11.2716     0.7765 H       
  84 H84           -5.1315   -11.5914     2.5209 H       
  85 H85           -7.5480   -11.0466     2.4108 H       
  86 H86           -7.3964   -10.7267     0.6663 H       
  87 H87           -7.9619   -14.9379    -0.1549 H       
  88 H88           -8.1135   -15.2578     1.5895 H       
  89 H89          -11.0205   -13.1790     0.8166 H       
  90 H90          -14.0720   -14.9918     1.1612 H       
  91 H91          -13.5335   -13.4525     0.4478 H       
  92 H92          -15.1350   -15.0489    -3.2380 H       
  93 H93          -15.7865   -17.1102    -2.1363 H       
  94 H94          -17.3044   -16.4113    -1.5780 H       
  95 H95          -16.4645   -16.7938    -4.5009 H       
  96 H96          -17.6210   -17.8204    -3.6161 H       
  97 H97          -17.0563   -14.4728    -5.0383 H       
  98 H98          -18.3704   -14.3839    -1.4064 H       
  99 H99          -17.2213   -13.0745    -1.0413 H       
 100 H100         -18.5736   -12.7851    -2.1619 H       
 101 H101         -16.8204   -11.9399    -3.7634 H       
 102 H102         -15.5588   -12.3629    -2.5812 H       
 103 H103         -15.4768   -13.0062    -4.2388 H       
 104 H104         -19.7333   -13.5197    -3.9526 H       
 105 H105         -18.4862   -12.4401    -4.5952 H       
 106 H106         -20.0010   -13.1109    -6.3888 H       
 107 H107         -18.3461   -13.7090    -6.6372 H       
 108 H108         -18.0016   -16.3857    -6.0949 H       
 109 H109         -18.8689   -18.3703    -5.0607 H       
 110 H110         -20.4229   -17.6161    -4.6776 H       
 111 H111         -20.3077   -19.0264    -6.9247 H       
 112 H112         -17.9284   -15.9478    -7.9271 H       
 113 H113         -18.8877   -15.6545    -9.3975 H       
 114 H114         -18.5095   -14.3068    -8.2980 H       
 115 H115         -22.0405   -14.7590    -7.6109 H       
 116 H116         -20.7712   -13.7934    -8.3440 H       
 117 H117         -22.3650   -14.7715    -9.9834 H       
 118 H118         -20.6877   -15.2590   -10.2860 H       
 119 H119         -19.9241   -17.4960    -9.7712 H       
 120 H120         -20.1815   -19.6870    -8.7181 H       
 121 H121         -21.8388   -19.3141    -8.2233 H       
 122 H122         -19.6339   -20.2680   -11.0048 H       
 123 H123         -20.8033   -19.9889   -12.3173 H       
 124 H124         -20.0660   -18.6061   -11.4733 H       
 125 H125         -22.8749   -21.1142    -9.4404 H       
 126 H126         -22.4229   -21.4634   -11.1262 H       
 127 H127         -21.2383   -21.7028    -9.8194 H       
 128 H128         -22.9876   -19.1207   -11.8760 H       
 129 H129         -23.6276   -18.9675   -10.2385 H       
 130 H130         -23.2898   -16.7387   -11.1864 H       
 131 H131         -21.6140   -17.1170   -11.6178 H       
 132 H132         -25.5588   -17.5316    -7.7057 H       
 133 H133         -24.9316   -16.1433    -6.7850 H       
 134 H134         -27.3637   -17.2488    -9.3047 H       
 135 H135         -29.3331   -15.9242    -9.9605 H       
 136 H136         -29.5667   -13.5989    -9.1849 H       
 137 H137         -27.8314   -12.5985    -7.7528 H       
 138 H138         -25.8643   -13.9246    -7.0931 H       
 139 H139         -21.8696   -14.5935    -5.9651 H       
 140 H140         -21.5823   -16.2581    -5.4039 H       
 141 H141         -21.0797   -14.8798    -4.3959 H       
 142 H142         -18.9603   -15.8797    -2.0122 H       
 143 H143         -20.1509   -15.1561    -3.1200 H       
 144 H144         -19.9263   -16.9215    -3.0846 H       
@<TRIPOS>BOND
   1    1    2 1
   2    1   64 1
   3    1   65 1
   4    1   66 1
   5    2    3 1
   6    2   67 1
   7    2   68 1
   8    3    4 1
   9    3   69 1
  10    3   70 1
  11    4    5 1
  12    4   71 1
  13    4   72 1
  14    5    6 1
  15    5   73 1
  16    5   74 1
  17    6    7 1
  18    6   75 1
  19    6   76 1
  20    7    8 1
  21    7   77 1
  22    7   78 1
  23    8    9 1
  24    8   79 1
  25    8   80 1
  26    9   10 1
  27    9   81 1
  28    9   82 1
  29   10   11 1
  30   10   83 1
  31   10   84 1
  32   11   12 1
  33   11   85 1
  34   11   86 1
  35   12   13 2
  36   12   14 1
  37   14   15 1
  38   15   16 1
  39   15   87 1
  40   15   88 1
  41   16   17 1
  42   16   20 2
  43   17   18 2
  44   18   19 1
  45   19   20 1
  46   19   21 1
  47   20   89 1
  48   21   22 1
  49   21   90 1
  50   21   91 1
  51   22   23 2
  52   22   24 1
  53   24   25 1
  54   25   26 1
  55   25   30 1
  56   25   92 1
  57   26   27 1
  58   26   93 1
  59   26   94 1
  60   27   28 1
  61   27   95 1
  62   27   96 1
  63   28   29 1
  64   28   63 1
  65   28   36 1
  66   29   30 1
  67   29   33 1
  68   29   97 1
  69   30   31 1
  70   30   32 1
  71   31   98 1
  72   31   99 1
  73   31  100 1
  74   32  101 1
  75   32  102 1
  76   32  103 1
  77   33   34 1
  78   33  104 1
  79   33  105 1
  80   34   35 1
  81   34  106 1
  82   34  107 1
  83   35   40 1
  84   35   62 1
  85   35   36 1
  86   36   37 1
  87   36  108 1
  88   37   38 1
  89   37  109 1
  90   37  110 1
  91   38   39 2
  92   38  111 1
  93   39   40 1
  94   39   45 1
  95   40   41 1
  96   40   42 1
  97   41  112 1
  98   41  113 1
  99   41  114 1
 100   42   43 1
 101   42  115 1
 102   42  116 1
 103   43   44 1
 104   43  117 1
 105   43  118 1
 106   44   52 1
 107   44   45 1
 108   44   51 1
 109   45   46 1
 110   45  119 1
 111   46   47 1
 112   46  120 1
 113   46  121 1
 114   47   48 1
 115   47   49 1
 116   47   50 1
 117   48  122 1
 118   48  123 1
 119   48  124 1
 120   49  125 1
 121   49  126 1
 122   49  127 1
 123   50   51 1
 124   50  128 1
 125   50  129 1
 126   51  130 1
 127   51  131 1
 128   52   53 2
 129   52   54 1
 130   54   55 1
 131   55   56 1
 132   55  132 1
 133   55  133 1
 134   56   57 ar
 135   56   61 ar
 136   57   58 ar
 137   57  134 1
 138   58   59 ar
 139   58  135 1
 140   59   60 ar
 141   59  136 1
 142   60   61 ar
 143   60  137 1
 144   61  138 1
 145   62  139 1
 146   62  140 1
 147   62  141 1
 148   63  142 1
 149   63  143 1
 150   63  144 1

#	End of record

