#	Name: ASD04590307
#	Creating user name:	WinNT
#	Creation time:	15. 06. 2019 20:50

#	Modifying user name:	WinNT
#	Modification time:	15. 06. 2019 20:50

#	Program:	/corina/corina34_cracker 3.40 0067  02.08.2006

@<TRIPOS>MOLECULE
ASD04590307
  44   48    0    0    0
SMALL
NO_CHARGES


@<TRIPOS>ATOM
   1 C1            -0.0167     1.3834     0.0096 C.ar    
   2 C2             0.0021    -0.0041     0.0020 C.ar    
   3 C3             1.1863    -0.6848    -0.0130 C.ar    
   4 C4             2.3948     0.0191    -0.0208 C.ar    
   5 C5             2.3756     1.4250    -0.0131 C.ar    
   6 C6             1.1624     2.0987     0.0022 C.ar    
   7 N7             3.6952    -0.3636    -0.0353 N.2     
   8 C8             4.4665     0.6967    -0.0370 C.2     
   9 N9             3.6970     1.8290    -0.0236 N.pl3   
  10 C10            5.9437     0.6731    -0.0513 C.2     
  11 C11            6.7566    -0.4840    -0.0658 C.2     
  12 C12            8.0505    -0.0799    -0.0758 C.2     
  13 N13            8.0626     1.2789    -0.0681 N.pl3   
  14 N14            6.7358     1.7272    -0.0585 N.2     
  15 N15            6.3044    -1.8133    -0.0688 N.am    
  16 C16            7.1924    -2.8271    -0.0832 C.2     
  17 C17            6.7163    -4.2267    -0.0864 C.ar    
  18 O18            8.3849    -2.5906    -0.0937 O.2     
  19 C19            7.1867    -6.5842    -0.1061 C.ar    
  20 C20            5.8189    -6.8437    -0.0902 C.ar    
  21 C21            4.9079    -5.8054    -0.0773 C.ar    
  22 C22            5.3482    -4.4979    -0.0744 C.ar    
  23 C23            7.6374    -5.2783    -0.1071 C.ar    
  24 C24            9.1092    -4.9536    -0.1357 C.3     
  25 C25            9.9171    -6.1840     0.2845 C.3     
  26 C26            9.3976    -7.3932    -0.5037 C.3     
  27 O27            8.0453    -7.6373    -0.1145 O.3     
  28 H28           -0.9614     1.9069     0.0170 H       
  29 H29           -0.9290    -0.5513     0.0084 H       
  30 H30            1.1893    -1.7648    -0.0185 H       
  31 H31            1.1417     3.1785     0.0079 H       
  32 H32            4.0192     2.7439    -0.0222 H       
  33 H33            8.9176    -0.7236    -0.0876 H       
  34 H34            8.8532     1.8410    -0.0721 H       
  35 H35            5.3530    -2.0020    -0.0604 H       
  36 H36            5.4673    -7.8648    -0.0927 H       
  37 H37            3.8490    -6.0176    -0.0654 H       
  38 H38            4.6354    -3.6866    -0.0624 H       
  39 H39            9.3961    -4.6588    -1.1451 H       
  40 H40            9.3131    -4.1335     0.5527 H       
  41 H41           10.9719    -6.0251     0.0605 H       
  42 H42            9.7902    -6.3597     1.3527 H       
  43 H43            9.4395    -7.1806    -1.5720 H       
  44 H44           10.0079    -8.2679    -0.2788 H       
@<TRIPOS>BOND
   1    1    2 ar
   2    1    6 ar
   3    1   28 1
   4    2    3 ar
   5    2   29 1
   6    3    4 ar
   7    3   30 1
   8    4    5 ar
   9    4    7 1
  10    5    6 ar
  11    5    9 1
  12    6   31 1
  13    7    8 2
  14    8    9 1
  15    8   10 1
  16    9   32 1
  17   10   11 1
  18   10   14 2
  19   11   12 2
  20   11   15 1
  21   12   13 1
  22   12   33 1
  23   13   14 1
  24   13   34 1
  25   15   16 am
  26   15   35 1
  27   16   17 1
  28   16   18 2
  29   17   22 ar
  30   17   23 ar
  31   19   20 ar
  32   19   23 ar
  33   19   27 1
  34   20   21 ar
  35   20   36 1
  36   21   22 ar
  37   21   37 1
  38   22   38 1
  39   23   24 1
  40   24   25 1
  41   24   39 1
  42   24   40 1
  43   25   26 1
  44   25   41 1
  45   25   42 1
  46   26   27 1
  47   26   43 1
  48   26   44 1

#	End of record

