#	Name: ASD00071022
#	Creating user name:	WinNT
#	Creation time:	15. 06. 2019 18:30

#	Modifying user name:	WinNT
#	Modification time:	15. 06. 2019 18:30

#	Program:	/corina/corina34_cracker 3.40 0067  02.08.2006

@<TRIPOS>MOLECULE
ASD00071022
  39   42    0    0    0
SMALL
NO_CHARGES


@<TRIPOS>ATOM
   1 N1            -0.1086     1.1206     0.4100 N.ar    
   2 C2             0.0192    -0.1611     0.1345 C.ar    
   3 C3             1.2536    -0.7117    -0.2364 C.ar    
   4 C4             2.3557     0.0860    -0.3192 C.ar    
   5 C5             2.2126     1.4565    -0.0242 C.ar    
   6 C6             3.3069     2.3329    -0.0926 C.ar    
   7 C7             3.1369     3.6552     0.2012 C.ar    
   8 C8             1.8755     4.1486     0.5726 C.ar    
   9 C9             0.7945     3.3165     0.6453 C.ar    
  10 C10            0.9385     1.9524     0.3471 C.ar    
  11 O11            1.9898     5.4887     0.8099 O.3     
  12 C12            3.2228     5.8874     0.1838 C.3     
  13 O13            4.0256     4.6929     0.2084 O.3     
  14 N14           -1.0943    -0.9857     0.2137 N.pl3   
  15 C15            1.3623    -2.1833    -0.5425 C.3     
  16 C16            0.9967    -2.4248    -1.9844 C.ar    
  17 C17            1.9367    -2.2158    -2.9834 C.ar    
  18 C18            1.5970    -2.4389    -4.3096 C.ar    
  19 C19            0.3242    -2.8685    -4.6327 C.ar    
  20 C20           -0.6106    -3.0755    -3.6356 C.ar    
  21 C21           -0.2727    -2.8597    -2.3121 C.ar    
  22 O22            3.1878    -1.7928    -2.6631 O.3     
  23 C23            4.1033    -1.5987    -3.7430 C.3     
  24 H24            3.3144    -0.3221    -0.6035 H       
  25 H25            4.2807     1.9622    -0.3766 H       
  26 H26           -0.1704     3.7079     0.9320 H       
  27 H27            3.0445     6.2072    -0.8429 H       
  28 H28            3.7023     6.6823     0.7551 H       
  29 H29           -1.9717    -0.6023     0.3688 H       
  30 H30           -0.9951    -1.9455     0.1139 H       
  31 H31            2.3850    -2.5165    -0.3662 H       
  32 H32            0.6826    -2.7398     0.1028 H       
  33 H33            2.3268    -2.2767    -5.0891 H       
  34 H34            0.0593    -3.0424    -5.6652 H       
  35 H35           -1.6052    -3.4106    -3.8902 H       
  36 H36           -1.0033    -3.0267    -1.5345 H       
  37 H37            4.2398    -2.5390    -4.2771 H       
  38 H38            3.7060    -0.8475    -4.4256 H       
  39 H39            5.0625    -1.2615    -3.3500 H       
@<TRIPOS>BOND
   1    1    2 ar
   2    1   10 ar
   3    2    3 ar
   4    2   14 1
   5    3    4 ar
   6    3   15 1
   7    4    5 ar
   8    4   24 1
   9    5    6 ar
  10    5   10 ar
  11    6    7 ar
  12    6   25 1
  13    7    8 ar
  14    7   13 1
  15    8    9 ar
  16    8   11 1
  17    9   10 ar
  18    9   26 1
  19   11   12 1
  20   12   13 1
  21   12   27 1
  22   12   28 1
  23   14   29 1
  24   14   30 1
  25   15   16 1
  26   15   31 1
  27   15   32 1
  28   16   17 ar
  29   16   21 ar
  30   17   18 ar
  31   17   22 1
  32   18   19 ar
  33   18   33 1
  34   19   20 ar
  35   19   34 1
  36   20   21 ar
  37   20   35 1
  38   21   36 1
  39   22   23 1
  40   23   37 1
  41   23   38 1
  42   23   39 1

#	End of record

