#	Name: ASD01816498
#	Creating user name:	WinNT
#	Creation time:	15. 06. 2019 19:35

#	Modifying user name:	WinNT
#	Modification time:	15. 06. 2019 19:35

#	Program:	/corina/corina34_cracker 3.40 0067  02.08.2006

@<TRIPOS>MOLECULE
ASD01816498
  62   68    0    0    0
SMALL
NO_CHARGES


@<TRIPOS>ATOM
   1 C1            -0.0347     1.4118    -0.0071 C.ar    
   2 C2            -0.0177     0.0266    -0.0320 C.ar    
   3 C3             1.1775    -0.6614    -0.0636 C.ar    
   4 C4             2.3815     0.0340    -0.0703 C.ar    
   5 C5             2.3609     1.4385    -0.0450 C.ar    
   6 C6             1.1491     2.1208    -0.0136 C.ar    
   7 N7             3.5843    -0.6504    -0.1010 N.pl3   
   8 C8             4.7767    -0.0331    -0.1088 C.2     
   9 C9             4.8815     1.3354    -0.0862 C.2     
  10 C10            3.6497     2.1565    -0.0526 C.2     
  11 C11            5.9798     2.2968    -0.0864 C.2     
  12 N12            5.4089     3.5203    -0.0561 N.am    
  13 N13            4.0166     3.4058    -0.0364 N.2     
  14 C14            6.1125     4.7316    -0.0461 C.ar    
  15 O15            7.1737     2.0454    -0.1090 O.2     
  16 C16            3.5550    -2.1149    -0.1255 C.3     
  17 C17            3.5225    -2.5927    -1.5544 C.ar    
  18 C18            4.7055    -2.8352    -2.2280 C.ar    
  19 C19            4.6790    -3.2728    -3.5377 C.ar    
  20 C20            3.4628    -3.4697    -4.1778 C.ar    
  21 C21            2.2766    -3.2258    -3.4988 C.ar    
  22 C22            2.3096    -2.7933    -2.1875 C.ar    
  23 N23            3.4326    -3.9133    -5.5073 N.pl3   
  24 C24            2.3225    -4.1440    -6.2443 C.2     
  25 C25            2.7205    -4.5588    -7.4693 C.2     
  26 C26            4.1194    -4.5827    -7.4826 C.2     
  27 N27            4.5471    -4.1904    -6.3095 N.2     
  28 C28            7.0414     5.0047    -1.0393 C.ar    
  29 C29            7.7344     6.2006    -1.0273 C.ar    
  30 C30            7.5050     7.1277    -0.0273 C.ar    
  31 C31            6.5812     6.8643     0.9666 C.ar    
  32 C32            5.8768     5.6695     0.9597 C.ar    
  33 N33            4.9411     5.4006     1.9648 N.am    
  34 C34            5.1518     5.8475     3.2187 C.2     
  35 O35            6.2013     6.3953     3.5012 O.2     
  36 C36            4.1166     5.6739     4.2425 C.2     
  37 O37            2.9152     5.0869     4.0635 O.3     
  38 C38            2.2340     5.1077     5.2166 C.2     
  39 C39            2.9919     5.7117     6.1584 C.2     
  40 C40            4.2021     6.0727     5.5458 C.2     
  41 H41           -0.9774     1.9384     0.0130 H       
  42 H42           -0.9493    -0.5198    -0.0263 H       
  43 H43            1.1781    -1.7412    -0.0828 H       
  44 H44            1.1349     3.2005     0.0062 H       
  45 H45            5.6771    -0.6290    -0.1333 H       
  46 H46            4.4455    -2.5044     0.3677 H       
  47 H47            2.6661    -2.4693     0.3964 H       
  48 H48            5.6513    -2.6819    -1.7295 H       
  49 H49            5.6033    -3.4613    -4.0635 H       
  50 H50            1.3291    -3.3777    -3.9942 H       
  51 H51            1.3872    -2.6034    -1.6587 H       
  52 H52            1.3017    -4.0201    -5.9142 H       
  53 H53            2.0727    -4.8244    -8.2916 H       
  54 H54            4.7396    -4.8709    -8.3184 H       
  55 H55            7.2234     4.2829    -1.8217 H       
  56 H56            8.4576     6.4114    -1.8012 H       
  57 H57            8.0496     8.0603    -0.0227 H       
  58 H58            6.4046     7.5907     1.7461 H       
  59 H59            4.1409     4.8924     1.7591 H       
  60 H60            1.2423     4.7080     5.3686 H       
  61 H61            2.7194     5.8807     7.1897 H       
  62 H62            5.0363     6.5751     6.0128 H       
@<TRIPOS>BOND
   1    1    2 ar
   2    1    6 ar
   3    1   41 1
   4    2    3 ar
   5    2   42 1
   6    3    4 ar
   7    3   43 1
   8    4    5 ar
   9    4    7 1
  10    5    6 ar
  11    5   10 1
  12    6   44 1
  13    7    8 1
  14    7   16 1
  15    8    9 2
  16    8   45 1
  17    9   10 1
  18    9   11 1
  19   10   13 2
  20   11   12 am
  21   11   15 2
  22   12   13 1
  23   12   14 1
  24   14   28 ar
  25   14   32 ar
  26   16   17 1
  27   16   46 1
  28   16   47 1
  29   17   18 ar
  30   17   22 ar
  31   18   19 ar
  32   18   48 1
  33   19   20 ar
  34   19   49 1
  35   20   21 ar
  36   20   23 1
  37   21   22 ar
  38   21   50 1
  39   22   51 1
  40   23   24 1
  41   23   27 1
  42   24   25 2
  43   24   52 1
  44   25   26 1
  45   25   53 1
  46   26   27 2
  47   26   54 1
  48   28   29 ar
  49   28   55 1
  50   29   30 ar
  51   29   56 1
  52   30   31 ar
  53   30   57 1
  54   31   32 ar
  55   31   58 1
  56   32   33 1
  57   33   34 am
  58   33   59 1
  59   34   35 2
  60   34   36 1
  61   36   37 1
  62   36   40 2
  63   37   38 1
  64   38   39 2
  65   38   60 1
  66   39   40 1
  67   39   61 1
  68   40   62 1

#	End of record

