#	Name: ASD01948065
#	Creating user name:	WinNT
#	Creation time:	15. 06. 2019 20:13

#	Modifying user name:	WinNT
#	Modification time:	15. 06. 2019 20:13

#	Program:	/corina/corina34_cracker 3.40 0067  02.08.2006

@<TRIPOS>MOLECULE
ASD01948065
  27   27    0    0    0
SMALL
NO_CHARGES


@<TRIPOS>ATOM
   1 C1            -0.0188     1.5342     0.0105 C.3     
   2 C2             0.0021    -0.0041     0.0020 C.3     
   3 C3             1.3807     0.0970     0.6240 C.2     
   4 C4             1.5182     1.4694    -0.0045 C.3     
   5 S5            -0.7315     2.2608    -1.4911 S.o2    
   6 O6             0.0566     1.9316    -2.6268 O.2     
   7 O7            -2.1425     2.0931    -1.5049 O.2     
   8 O8            -0.5333     3.7599    -1.3185 O.3     
   9 O9             2.0706    -0.6098     1.3188 O.2     
  10 C10            0.8116     4.1961    -1.5257 C.3     
  11 C11            0.8927     5.7110    -1.3275 C.3     
  12 C12            2.3327     6.1780    -1.5494 C.3     
  13 C13            2.4138     7.6929    -1.3512 C.3     
  14 H14           -0.4297     1.9610     0.9254 H       
  15 H15           -0.7420    -0.4554     0.6583 H       
  16 H16            0.0042    -0.4361    -0.9987 H       
  17 H17            1.9455     1.4507    -1.0071 H       
  18 H18            1.9934     2.2032     0.6465 H       
  19 H19            1.4685     3.7004    -0.8110 H       
  20 H20            1.1228     3.9451    -2.5398 H       
  21 H21            0.2358     6.2067    -2.0423 H       
  22 H22            0.5816     5.9619    -0.3135 H       
  23 H23            2.9896     5.6824    -0.8346 H       
  24 H24            2.6439     5.9271    -2.5635 H       
  25 H25            3.4397     8.0256    -1.5093 H       
  26 H26            1.7569     8.1886    -2.0660 H       
  27 H27            2.1027     7.9439    -0.3371 H       
@<TRIPOS>BOND
   1    1    2 1
   2    1    4 1
   3    1    5 1
   4    1   14 1
   5    2    3 1
   6    2   15 1
   7    2   16 1
   8    3    4 1
   9    3    9 2
  10    4   17 1
  11    4   18 1
  12    5    6 2
  13    5    7 2
  14    5    8 1
  15    8   10 1
  16   10   11 1
  17   10   19 1
  18   10   20 1
  19   11   12 1
  20   11   21 1
  21   11   22 1
  22   12   13 1
  23   12   23 1
  24   12   24 1
  25   13   25 1
  26   13   26 1
  27   13   27 1

#	End of record

