#	Name: ASD01150763
#	Creating user name:	WinNT
#	Creation time:	15. 06. 2019 19:05

#	Modifying user name:	WinNT
#	Modification time:	15. 06. 2019 19:05

#	Program:	/corina/corina34_cracker 3.40 0067  02.08.2006

@<TRIPOS>MOLECULE
ASD01150763
  53   56    0    0    0
SMALL
NO_CHARGES


@<TRIPOS>ATOM
   1 C1            -0.0864     1.6253    -0.0737 C.2     
   2 C2            -0.6684     1.3507    -1.4364 C.3     
   3 N3             3.5413     2.2701     0.2683 N.ar    
   4 C4             2.3968     1.6486     0.1580 C.ar    
   5 C5             1.1824     2.3509     0.0493 C.ar    
   6 C6             1.2002     3.7573     0.0596 C.ar    
   7 C7             2.4575     4.3992     0.1805 C.ar    
   8 C8             2.5578     5.7960     0.1979 C.ar    
   9 C9             3.7992     6.3864     0.3166 C.ar    
  10 C10            4.9515     5.6000     0.4191 C.ar    
  11 C11            4.8757     4.2415     0.4042 C.ar    
  12 C12            3.6278     3.6073     0.2846 C.ar    
  13 N13            3.9060     7.7785     0.3341 N.3     
  14 C14            2.7709     8.3866     1.0522 C.3     
  15 C15            3.3582     9.2485     2.1896 C.3     
  16 C16            4.8030     9.5338     1.7015 C.3     
  17 C17            5.1607     8.2054     0.9894 C.3     
  18 C18            2.3774     0.1417     0.1463 C.3     
  19 C19           -0.0491     4.5383    -0.0523 C.ar    
  20 C20           -1.0124     4.4692     0.9566 C.ar    
  21 C21           -2.1761     5.2013     0.8459 C.ar    
  22 C22           -2.3903     6.0030    -0.2616 C.ar    
  23 C23           -1.4403     6.0758    -1.2652 C.ar    
  24 C24           -0.2695     5.3535    -1.1647 C.ar    
  25 S25           -3.8798     6.9348    -0.3947 S.o2    
  26 O26           -4.0616     7.1070    -1.7935 O.2     
  27 O27           -4.8201     6.2054     0.3819 O.2     
  28 C28           -3.4940     8.5206     0.3970 C.3     
  29 F29           -1.8190     0.5662    -1.3026 F       
  30 F30           -0.9986     2.5613    -2.0550 F       
  31 F31            0.2722     0.6697    -2.2166 F       
  32 O32           -0.6699     1.2506     0.9218 O.2     
  33 H33            1.6703     6.4063     0.1186 H       
  34 H34            5.9155     6.0781     0.5111 H       
  35 H35            5.7758     3.6501     0.4845 H       
  36 H36            2.1946     9.0135     0.3717 H       
  37 H37            2.1348     7.6059     1.4692 H       
  38 H38            2.7978    10.1770     2.2983 H       
  39 H39            3.3708     8.6927     3.1271 H       
  40 H40            4.8208    10.3691     1.0016 H       
  41 H41            5.4704     9.7175     2.5435 H       
  42 H42            5.4819     7.4596     1.7165 H       
  43 H43            5.9399     8.3715     0.2455 H       
  44 H44            2.3618    -0.2294     1.1711 H       
  45 H45            1.4883    -0.2062    -0.3796 H       
  46 H46            3.2680    -0.2292    -0.3609 H       
  47 H47           -0.8467     3.8437     1.8213 H       
  48 H48           -2.9220     5.1485     1.6251 H       
  49 H49           -1.6140     6.7032    -2.1269 H       
  50 H50            0.4732     5.4150    -1.9463 H       
  51 H51           -2.6671     8.9977    -0.1290 H       
  52 H52           -4.3701     9.1680     0.3599 H       
  53 H53           -3.2128     8.3490     1.4361 H       
@<TRIPOS>BOND
   1    1    2 1
   2    1    5 1
   3    1   32 2
   4    2   29 1
   5    2   30 1
   6    2   31 1
   7    3    4 ar
   8    3   12 ar
   9    4    5 ar
  10    4   18 1
  11    5    6 ar
  12    6    7 ar
  13    6   19 1
  14    7    8 ar
  15    7   12 ar
  16    8    9 ar
  17    8   33 1
  18    9   10 ar
  19    9   13 1
  20   10   11 ar
  21   10   34 1
  22   11   12 ar
  23   11   35 1
  24   13   14 1
  25   13   17 1
  26   14   15 1
  27   14   36 1
  28   14   37 1
  29   15   16 1
  30   15   38 1
  31   15   39 1
  32   16   17 1
  33   16   40 1
  34   16   41 1
  35   17   42 1
  36   17   43 1
  37   18   44 1
  38   18   45 1
  39   18   46 1
  40   19   20 ar
  41   19   24 ar
  42   20   21 ar
  43   20   47 1
  44   21   22 ar
  45   21   48 1
  46   22   23 ar
  47   22   25 1
  48   23   24 ar
  49   23   49 1
  50   24   50 1
  51   25   26 2
  52   25   27 2
  53   25   28 1
  54   28   51 1
  55   28   52 1
  56   28   53 1

#	End of record

