#	Name: ASD09116414
#	Creating user name:	WinNT
#	Creation time:	15. 06. 2019 21:21

#	Modifying user name:	WinNT
#	Modification time:	15. 06. 2019 21:21

#	Program:	/corina/corina34_cracker 3.40 0067  02.08.2006

@<TRIPOS>MOLECULE
ASD09116414
  80   87    0    0    0
SMALL
NO_CHARGES


@<TRIPOS>ATOM
   1 N1            -0.5584     3.0033    -0.0158 N.2     
   2 N2            -1.2309     4.1708     0.3797 N.pl3   
   3 C3             0.7222     3.2861    -0.0324 C.2     
   4 N4             0.8915     4.5632     0.3298 N.2     
   5 C5            -0.2781     5.1110     0.5819 C.2     
   6 N6            -0.4954     6.4155     0.9827 N.pl3   
   7 C7            -2.6092     4.3304     0.5340 C.ar    
   8 N8             1.7431     2.3987    -0.3723 N.pl3   
   9 C9             3.0671     2.8498    -0.4471 C.ar    
  10 C10            3.3438     4.1712    -0.7939 C.ar    
  11 C11            4.1188     1.9887    -0.1714 C.ar    
  12 N12            5.3685     2.4066    -0.2393 N.ar    
  13 C13            5.6682     3.6526    -0.5702 C.ar    
  14 C14            4.6658     4.5733    -0.8550 C.ar    
  15 N15           -3.0810     5.2607     1.3504 N.ar    
  16 N16           -4.3401     5.4421     1.5358 N.ar    
  17 C17           -5.2461     4.7024     0.9168 C.ar    
  18 C18           -4.8415     3.7098     0.0195 C.ar    
  19 C19           -3.4911     3.5126    -0.1772 C.ar    
  20 C20           -6.6957     4.8730     1.1694 C.ar    
  21 C21           -7.4682     3.7458     1.4536 C.ar    
  22 C22           -6.8024     2.4005     1.5509 C.3     
  23 C23           -6.4805     1.8373     0.1694 C.3     
  24 C24           -5.8733     2.9142    -0.7257 C.3     
  25 C25           -7.2894     6.1295     1.1228 C.ar    
  26 C26           -8.6481     6.2522     1.3402 C.ar    
  27 C27           -9.4137     5.1302     1.6005 C.ar    
  28 C28           -8.8250     3.8786     1.6567 C.ar    
  29 N29            7.0027     4.0476    -0.6287 N.3     
  30 C30            7.2368     5.1502     0.2031 C.3     
  31 C31            8.6565     5.7240    -0.0031 C.3     
  32 C32            9.6532     4.8201     0.6767 C.3     
  33 N33           10.2076     3.7881    -0.2289 N.3     
  34 C34            9.2009     3.1722    -1.1178 C.3     
  35 C35            7.9045     2.9012    -0.3972 C.3     
  36 C36           11.3384     4.3187    -1.0020 C.3     
  37 C37           12.5197     4.6880    -0.0537 C.3     
  38 C38           11.9124     3.2279    -1.9349 C.3     
  39 C39           13.3865     3.0408    -1.4623 C.3     
  40 C40           14.1063     4.3529    -1.9003 C.3     
  41 C41           13.5323     5.4437    -0.9675 C.3     
  42 C42           13.2316     3.2955     0.0787 C.3     
  43 H43            0.2556     7.0177     1.1019 H       
  44 H44           -1.3989     6.7290     1.1448 H       
  45 H45            1.5363     1.4692    -0.5569 H       
  46 H46            2.5446     4.8648    -1.0102 H       
  47 H47            3.9125     0.9645     0.1024 H       
  48 H48            4.9165     5.5887    -1.1244 H       
  49 H49           -3.1285     2.7488    -0.8492 H       
  50 H50           -5.8778     2.5005     2.1195 H       
  51 H51           -7.4668     1.7107     2.0713 H       
  52 H52           -5.7721     1.0154     0.2730 H       
  53 H53           -7.3968     1.4646    -0.2886 H       
  54 H54           -6.6631     3.5829    -1.0681 H       
  55 H55           -5.4061     2.4410    -1.5893 H       
  56 H56           -6.6912     7.0051     0.9180 H       
  57 H57           -9.1133     7.2263     1.3073 H       
  58 H58          -10.4769     5.2311     1.7613 H       
  59 H59           -9.4288     3.0064     1.8593 H       
  60 H60            6.5036     5.9256    -0.0185 H       
  61 H61            7.1246     4.8423     1.2427 H       
  62 H62            8.8781     5.7753    -1.0691 H       
  63 H63            8.7134     6.7220     0.4315 H       
  64 H64           10.4729     5.4273     1.0607 H       
  65 H65            9.1633     4.3250     1.5151 H       
  66 H66            9.0081     3.8439    -1.9543 H       
  67 H67            9.5958     2.2322    -1.5032 H       
  68 H68            8.0930     2.7909     0.6707 H       
  69 H69            7.4499     1.9906    -0.7873 H       
  70 H70           11.0278     5.1897    -1.5791 H       
  71 H71           12.2468     5.1918     0.8736 H       
  72 H72           11.3556     2.2979    -1.8198 H       
  73 H73           11.8854     3.5621    -2.9720 H       
  74 H74           13.8685     2.1102    -1.7618 H       
  75 H75           15.1832     4.2606    -1.7595 H       
  76 H76           13.8766     4.5832    -2.9406 H       
  77 H77           13.0203     6.2102    -1.5492 H       
  78 H78           14.3270     5.8877    -0.3680 H       
  79 H79           14.1968     3.3757     0.5788 H       
  80 H80           12.5910     2.5523     0.5535 H       
@<TRIPOS>BOND
   1    1    2 1
   2    1    3 2
   3    2    7 1
   4    2    5 1
   5    3    4 1
   6    3    8 1
   7    4    5 2
   8    5    6 1
   9    6   43 1
  10    6   44 1
  11    7   15 ar
  12    7   19 ar
  13    8    9 1
  14    8   45 1
  15    9   10 ar
  16    9   11 ar
  17   10   14 ar
  18   10   46 1
  19   11   12 ar
  20   11   47 1
  21   12   13 ar
  22   13   14 ar
  23   13   29 1
  24   14   48 1
  25   15   16 ar
  26   16   17 ar
  27   17   18 ar
  28   17   20 1
  29   18   19 ar
  30   18   24 1
  31   19   49 1
  32   20   21 ar
  33   20   25 ar
  34   21   22 1
  35   21   28 ar
  36   22   23 1
  37   22   50 1
  38   22   51 1
  39   23   24 1
  40   23   52 1
  41   23   53 1
  42   24   54 1
  43   24   55 1
  44   25   26 ar
  45   25   56 1
  46   26   27 ar
  47   26   57 1
  48   27   28 ar
  49   27   58 1
  50   28   59 1
  51   29   30 1
  52   29   35 1
  53   30   31 1
  54   30   60 1
  55   30   61 1
  56   31   32 1
  57   31   62 1
  58   31   63 1
  59   32   33 1
  60   32   64 1
  61   32   65 1
  62   33   34 1
  63   33   36 1
  64   34   35 1
  65   34   66 1
  66   34   67 1
  67   35   68 1
  68   35   69 1
  69   36   37 1
  70   36   38 1
  71   36   70 1
  72   37   41 1
  73   37   42 1
  74   37   71 1
  75   38   39 1
  76   38   72 1
  77   38   73 1
  78   39   40 1
  79   39   42 1
  80   39   74 1
  81   40   41 1
  82   40   75 1
  83   40   76 1
  84   41   77 1
  85   41   78 1
  86   42   79 1
  87   42   80 1

#	End of record

