#	Name: ASD08178333
#	Creating user name:	WinNT
#	Creation time:	15. 06. 2019 21:18

#	Modifying user name:	WinNT
#	Modification time:	15. 06. 2019 21:18

#	Program:	/corina/corina34_cracker 3.40 0067  02.08.2006

@<TRIPOS>MOLECULE
ASD08178333
  65   68    0    0    0
SMALL
NO_CHARGES


@<TRIPOS>ATOM
   1 N1            -0.0168     1.3902     0.0097 N.am    
   2 C2            -0.2173     0.0103     0.0231 C.ar    
   3 C3             0.8683    -0.8557    -0.0926 C.ar    
   4 N4            -1.4399    -0.4832     0.1513 N.ar    
   5 N5            -1.6667    -1.7463     0.1686 N.ar    
   6 C6            -0.7002    -2.6368     0.0602 C.ar    
   7 C7             0.6159    -2.2190    -0.0733 C.ar    
   8 C8            -1.0247    -4.1082     0.0874 C.3     
   9 C9            -1.8115    -4.4335     1.3586 C.3     
  10 C10           -2.1410    -5.9273     1.3862 C.3     
  11 C11           -2.9278    -6.2527     2.6574 C.3     
  12 C12           -3.2523    -7.7241     2.6845 C.2     
  13 N13           -2.5213    -8.6581     3.2049 N.2     
  14 N14           -2.9690    -9.8359     3.1257 N.2     
  15 C15           -4.1130   -10.0077     2.5350 C.2     
  16 S16           -4.6995    -8.4828     2.0200 S.3     
  17 N17           -4.7575   -11.2270     2.3553 N.am    
  18 C18           -4.1929   -12.3617     2.8139 C.2     
  19 C19           -4.8913   -13.6828     2.6192 C.3     
  20 O20           -3.1229   -12.3195     3.3832 O.2     
  21 C21           -4.0568   -14.7853     3.2184 C.ar    
  22 C22           -4.1627   -15.0798     4.5698 C.ar    
  23 C23           -3.3933   -16.0958     5.1184 C.ar    
  24 C24           -2.5241   -16.8112     4.3182 C.ar    
  25 C25           -2.4200   -16.5154     2.9713 C.ar    
  26 C26           -3.1896   -15.5074     2.4211 C.ar    
  27 C27           -1.0750     2.2250     0.0167 C.2     
  28 C28           -0.8601     3.7130     0.1198 C.3     
  29 O29           -2.2000     1.7786    -0.0599 O.2     
  30 C30           -2.1935     4.4152     0.1067 C.ar    
  31 C31           -2.7594     4.8466     1.2916 C.ar    
  32 C32           -2.8493     4.6334    -1.0928 C.ar    
  33 C33           -4.0743     5.2792    -1.1035 C.ar    
  34 C34           -4.6406     5.7049     0.0829 C.ar    
  35 C35           -3.9824     5.4907     1.2798 C.ar    
  36 F36           -2.2945     4.2171    -2.2522 F       
  37 O37           -5.0183   -14.3741     5.3551 O.3     
  38 C38           -5.0753   -14.7321     6.7374 C.3     
  39 H39            0.8842     1.7494    -0.0006 H       
  40 H40            1.8745    -0.4770    -0.1944 H       
  41 H41            1.4199    -2.9345    -0.1636 H       
  42 H42           -1.6240    -4.3643    -0.7864 H       
  43 H43           -0.0997    -4.6845     0.0751 H       
  44 H44           -1.2123    -4.1774     2.2323 H       
  45 H45           -2.7366    -3.8571     1.3708 H       
  46 H46           -2.7402    -6.1835     0.5124 H       
  47 H47           -1.2159    -6.5037     1.3739 H       
  48 H48           -2.3286    -5.9966     3.5311 H       
  49 H49           -3.8529    -5.6763     2.6696 H       
  50 H50           -5.6133   -11.2607     1.9000 H       
  51 H51           -5.8640   -13.6554     3.1104 H       
  52 H52           -5.0274   -13.8683     1.5537 H       
  53 H53           -3.4737   -16.3267     6.1704 H       
  54 H54           -1.9250   -17.6021     4.7447 H       
  55 H55           -1.7392   -17.0755     2.3474 H       
  56 H56           -3.1065   -15.2782     1.3690 H       
  57 H57           -0.3385     3.9413     1.0493 H       
  58 H58           -0.2620     4.0532    -0.7255 H       
  59 H59           -2.2460     4.6801     2.2271 H       
  60 H60           -4.5867     5.4503    -2.0387 H       
  61 H61           -5.5959     6.2086     0.0748 H       
  62 H62           -4.4259     5.8234     2.2066 H       
  63 H63           -5.7950   -14.0930     7.2489 H       
  64 H64           -5.3834   -15.7735     6.8306 H       
  65 H65           -4.0908   -14.6029     7.1870 H       
@<TRIPOS>BOND
   1    1    2 1
   2    1   27 am
   3    1   39 1
   4    2    3 ar
   5    2    4 ar
   6    3    7 ar
   7    3   40 1
   8    4    5 ar
   9    5    6 ar
  10    6    7 ar
  11    6    8 1
  12    7   41 1
  13    8    9 1
  14    8   42 1
  15    8   43 1
  16    9   10 1
  17    9   44 1
  18    9   45 1
  19   10   11 1
  20   10   46 1
  21   10   47 1
  22   11   12 1
  23   11   48 1
  24   11   49 1
  25   12   13 2
  26   12   16 1
  27   13   14 1
  28   14   15 2
  29   15   16 1
  30   15   17 1
  31   17   18 am
  32   17   50 1
  33   18   19 1
  34   18   20 2
  35   19   21 1
  36   19   51 1
  37   19   52 1
  38   21   22 ar
  39   21   26 ar
  40   22   23 ar
  41   22   37 1
  42   23   24 ar
  43   23   53 1
  44   24   25 ar
  45   24   54 1
  46   25   26 ar
  47   25   55 1
  48   26   56 1
  49   27   28 1
  50   27   29 2
  51   28   30 1
  52   28   57 1
  53   28   58 1
  54   30   31 ar
  55   30   32 ar
  56   31   35 ar
  57   31   59 1
  58   32   33 ar
  59   32   36 1
  60   33   34 ar
  61   33   60 1
  62   34   35 ar
  63   34   61 1
  64   35   62 1
  65   37   38 1
  66   38   63 1
  67   38   64 1
  68   38   65 1

#	End of record

