#	Name: ASD01814006
#	Creating user name:	WinNT
#	Creation time:	15. 06. 2019 19:31

#	Modifying user name:	WinNT
#	Modification time:	15. 06. 2019 19:31

#	Program:	/corina/corina34_cracker 3.40 0067  02.08.2006

@<TRIPOS>MOLECULE
ASD01814006
  42   44    0    0    0
SMALL
NO_CHARGES


@<TRIPOS>ATOM
   1 C1            -0.0716     1.1152     0.2280 C.ar    
   2 C2             0.0783    -0.2629     0.2310 C.ar    
   3 C3             1.3274    -0.8367     0.1258 C.ar    
   4 C4             2.4569    -0.0314     0.0143 C.ar    
   5 C5             2.3054     1.3661     0.0107 C.ar    
   6 C6             1.0341     1.9351     0.1185 C.ar    
   7 N7             3.7106    -0.5947    -0.0909 N.pl3   
   8 C8             4.8276     0.1362    -0.1995 C.2     
   9 C9             4.8050     1.5160    -0.2145 C.2     
  10 C10            3.5095     2.2073    -0.1080 C.2     
  11 F11            0.8874     3.2781     0.1151 F       
  12 O12            3.4361     3.4236    -0.1168 O.2     
  13 C13            6.0532     2.2824    -0.3343 C.2     
  14 O14            6.0181     3.6300    -0.3478 O.3     
  15 O15            7.1174     1.7012    -0.4212 O.2     
  16 C16            3.8260    -2.0551    -0.0832 C.3     
  17 C17            3.7390    -2.5733    -1.4957 C.ar    
  18 C18            4.8891    -2.7170    -2.2499 C.ar    
  19 C19            4.8129    -3.1916    -3.5446 C.ar    
  20 C20            3.5791    -3.5248    -4.0890 C.ar    
  21 C21            2.4258    -3.3793    -3.3286 C.ar    
  22 C22            2.5097    -2.9094    -2.0326 C.ar    
  23 N23            3.4983    -4.0047    -5.3982 N.am    
  24 S24            3.9620    -5.5571    -5.7412 S.o2    
  25 O25            3.7280    -5.6926    -7.1362 O.2     
  26 O26            5.2743    -5.6573    -5.2054 O.2     
  27 C27            2.8088    -6.5926    -4.7987 C.3     
  28 H28           -1.0574     1.5492     0.3071 H       
  29 H29           -0.7935    -0.8944     0.3172 H       
  30 H30            1.4294    -1.9118     0.1303 H       
  31 H31            5.7778    -0.3712    -0.2776 H       
  32 H32            6.8646     4.0904    -0.4283 H       
  33 H33            4.7842    -2.3415     0.3504 H       
  34 H34            3.0168    -2.4804     0.5104 H       
  35 H35            5.8480    -2.4574    -1.8261 H       
  36 H36            5.7115    -3.3033    -4.1332 H       
  37 H37            1.4650    -3.6374    -3.7488 H       
  38 H38            1.6135    -2.7963    -1.4407 H       
  39 H39            3.1707    -3.4287    -6.1066 H       
  40 H40            1.7846    -6.3276    -5.0613 H       
  41 H41            2.9850    -7.6417    -5.0364 H       
  42 H42            2.9638    -6.4308    -3.7320 H       
@<TRIPOS>BOND
   1    1    2 ar
   2    1    6 ar
   3    1   28 1
   4    2    3 ar
   5    2   29 1
   6    3    4 ar
   7    3   30 1
   8    4    5 ar
   9    4    7 1
  10    5    6 ar
  11    5   10 1
  12    6   11 1
  13    7    8 1
  14    7   16 1
  15    8    9 2
  16    8   31 1
  17    9   10 1
  18    9   13 1
  19   10   12 2
  20   13   14 1
  21   13   15 2
  22   14   32 1
  23   16   17 1
  24   16   33 1
  25   16   34 1
  26   17   18 ar
  27   17   22 ar
  28   18   19 ar
  29   18   35 1
  30   19   20 ar
  31   19   36 1
  32   20   21 ar
  33   20   23 1
  34   21   22 ar
  35   21   37 1
  36   22   38 1
  37   23   24 am
  38   23   39 1
  39   24   25 2
  40   24   26 2
  41   24   27 1
  42   27   40 1
  43   27   41 1
  44   27   42 1

#	End of record

