#	Name: ASD01411004
#	Creating user name:	WinNT
#	Creation time:	15. 06. 2019 19:19

#	Modifying user name:	WinNT
#	Modification time:	15. 06. 2019 19:19

#	Program:	/corina/corina34_cracker 3.40 0067  02.08.2006

@<TRIPOS>MOLECULE
ASD01411004
  66   71    0    0    0
SMALL
NO_CHARGES


@<TRIPOS>ATOM
   1 C1            -0.0024     1.4230     0.0210 C.ar    
   2 C2             0.0162     0.0437     0.3031 C.ar    
   3 C3            -1.1576    -0.6130     0.6537 C.ar    
   4 C4            -2.3339     0.0757     0.7263 C.ar    
   5 C5            -2.3717     1.4485     0.4486 C.ar    
   6 C6            -1.2061     2.1245     0.1008 C.ar    
   7 N7             1.2670     1.7878    -0.2862 N.2     
   8 C8             2.0552     0.7398    -0.2132 C.2     
   9 N9             1.3253    -0.3638     0.1485 N.pl3   
  10 C10            1.8401    -1.7224     0.3365 C.3     
  11 C11            1.4511    -2.2273     1.7275 C.3     
  12 C12            1.9888    -3.6462     1.9238 C.3     
  13 C13            1.3910    -4.5697     0.8605 C.3     
  14 C14            1.7800    -4.0649    -0.5304 C.3     
  15 C15            1.2423    -2.6460    -0.7268 C.3     
  16 C16           -3.6512     2.1812     0.5304 C.2     
  17 O17           -3.6860     3.3724     0.2898 O.2     
  18 N18           -4.7803     1.5294     0.8718 N.am    
  19 C19           -6.0497     2.2564     0.9530 C.3     
  20 C20           -7.2097     1.2830     0.7343 C.3     
  21 C21           -6.1778     2.8931     2.3129 C.2     
  22 O22           -5.2990     2.7540     3.1303 O.2     
  23 O23           -7.2683     3.6148     2.6159 O.3     
  24 C24           -7.1510     0.7389    -0.6699 C.2     
  25 C25           -7.8135     1.2115    -1.7375 C.2     
  26 N26           -7.5119     0.4634    -2.8424 N.pl3   
  27 C27           -6.6239    -0.5357    -2.5032 C.ar    
  28 C28           -6.3551    -0.4018    -1.1295 C.ar    
  29 C29           -6.0070    -1.5511    -3.2266 C.ar    
  30 C30           -5.1452    -2.4199    -2.5957 C.ar    
  31 C31           -4.8817    -2.2938    -1.2340 C.ar    
  32 C32           -5.4783    -1.2884    -0.5000 C.ar    
  33 O33           -4.0278    -3.1604    -0.6264 O.3     
  34 C34            3.5011     0.7481    -0.4793 C.2     
  35 C35            4.2931     1.8561    -0.4936 C.2     
  36 C36            5.6186     1.6057    -0.7675 C.2     
  37 C37            5.9240     0.3200    -0.9763 C.2     
  38 S38            4.4807    -0.6722    -0.8215 S.3     
  39 H39           -1.1390    -1.6712     0.8689 H       
  40 H40           -3.2419    -0.4413     0.9994 H       
  41 H41           -1.2343     3.1826    -0.1134 H       
  42 H42            2.9260    -1.7157     0.2430 H       
  43 H43            1.8770    -1.5693     2.4850 H       
  44 H44            0.3652    -2.2340     1.8210 H       
  45 H45            3.0747    -3.6394     1.8303 H       
  46 H46            1.7117    -4.0058     2.9148 H       
  47 H47            1.7740    -5.5806     1.0004 H       
  48 H48            0.3051    -4.5765     0.9541 H       
  49 H49            2.8659    -4.0582    -0.6240 H       
  50 H50            1.3541    -4.7229    -1.2879 H       
  51 H51            0.1564    -2.6528    -0.6332 H       
  52 H52            1.5194    -2.2864    -1.7177 H       
  53 H53           -4.7526     0.5790     1.0638 H       
  54 H54           -6.0750     3.0301     0.1857 H       
  55 H55           -7.1334     0.4610     1.4459 H       
  56 H56           -8.1550     1.8052     0.8823 H       
  57 H57           -7.3054     4.0037     3.5005 H       
  58 H58           -8.4857     2.0568    -1.7258 H       
  59 H59           -7.8697     0.6130    -3.7315 H       
  60 H60           -6.2044    -1.6583    -4.2830 H       
  61 H61           -4.6692    -3.2067    -3.1620 H       
  62 H62           -5.2730    -1.1914     0.5558 H       
  63 H63           -3.1049    -2.8717    -0.6313 H       
  64 H64            3.9124     2.8492    -0.3060 H       
  65 H65            6.3589     2.3908    -0.8110 H       
  66 H66            6.9117    -0.0536    -1.2026 H       
@<TRIPOS>BOND
   1    1    2 ar
   2    1    7 1
   3    1    6 ar
   4    2    3 ar
   5    2    9 1
   6    3    4 ar
   7    3   39 1
   8    4    5 ar
   9    4   40 1
  10    5    6 ar
  11    5   16 1
  12    6   41 1
  13    7    8 2
  14    8    9 1
  15    8   34 1
  16    9   10 1
  17   10   11 1
  18   10   15 1
  19   10   42 1
  20   11   12 1
  21   11   43 1
  22   11   44 1
  23   12   13 1
  24   12   45 1
  25   12   46 1
  26   13   14 1
  27   13   47 1
  28   13   48 1
  29   14   15 1
  30   14   49 1
  31   14   50 1
  32   15   51 1
  33   15   52 1
  34   16   17 2
  35   16   18 am
  36   18   19 1
  37   18   53 1
  38   19   20 1
  39   19   21 1
  40   19   54 1
  41   20   24 1
  42   20   55 1
  43   20   56 1
  44   21   22 2
  45   21   23 1
  46   23   57 1
  47   24   25 2
  48   24   28 1
  49   25   26 1
  50   25   58 1
  51   26   27 1
  52   26   59 1
  53   27   28 ar
  54   27   29 ar
  55   28   32 ar
  56   29   30 ar
  57   29   60 1
  58   30   31 ar
  59   30   61 1
  60   31   32 ar
  61   31   33 1
  62   32   62 1
  63   33   63 1
  64   34   35 2
  65   34   38 1
  66   35   36 1
  67   35   64 1
  68   36   37 2
  69   36   65 1
  70   37   38 1
  71   37   66 1

#	End of record

