#	Name: ASD01916364
#	Creating user name:	WinNT
#	Creation time:	15. 06. 2019 20:07

#	Modifying user name:	WinNT
#	Modification time:	15. 06. 2019 20:07

#	Program:	/corina/corina34_cracker 3.40 0067  02.08.2006

@<TRIPOS>MOLECULE
ASD01916364
  43   45    0    0    0
SMALL
NO_CHARGES


@<TRIPOS>ATOM
   1 C1            -0.0187     1.5301     0.0105 C.3     
   2 C2             0.0021    -0.0041     0.0020 C.3     
   3 C3             0.6527    -0.5117     1.2867 C.3     
   4 C4             2.0132     0.0951     1.4821 C.ar    
   5 C5             2.3745     1.2990     0.8670 C.ar    
   6 C6             1.4208     2.0041    -0.0007 C.2     
   7 N7             2.9007    -0.5114     2.2514 N.ar    
   8 C8             4.1066     0.0090     2.4389 C.ar    
   9 N9             4.4821     1.1500     1.8740 N.ar    
  10 C10            3.6564     1.8187     1.0898 C.ar    
  11 N11            5.0003    -0.6579     3.2488 N.pl3   
  12 C12            6.3386    -0.1057     3.4732 C.3     
  13 O13            1.7727     2.9303    -0.7005 O.2     
  14 C14           -1.4308    -0.5330    -0.0874 C.3     
  15 C15            7.3020    -1.2365     3.8396 C.3     
  16 C16            8.6996    -0.6599     4.0740 C.3     
  17 C17            8.6472     0.3559     5.2169 C.3     
  18 C18            7.6838     1.4867     4.8505 C.3     
  19 C19            6.2862     0.9100     4.6162 C.3     
  20 C20           10.0449     0.9326     5.4513 C.3     
  21 H21           -0.5368     1.8983    -0.8751 H       
  22 H22           -0.5197     1.8887     0.9096 H       
  23 H23            0.5731    -0.3549    -0.8576 H       
  24 H24            0.0199    -0.2510     2.1350 H       
  25 H25            0.7493    -1.5962     1.2340 H       
  26 H26            3.9627     2.7468     0.6302 H       
  27 H27            4.7432    -1.4929     3.6703 H       
  28 H28            6.6854     0.3870     2.5648 H       
  29 H29           -1.8952    -0.1709    -1.0046 H       
  30 H30           -1.4161    -1.6229    -0.0934 H       
  31 H31           -2.0019    -0.1821     0.7721 H       
  32 H32            6.9552    -1.7292     4.7480 H       
  33 H33            7.3393    -1.9602     3.0254 H       
  34 H34            9.3860    -1.4654     4.3350 H       
  35 H35            9.0464    -0.1671     3.1656 H       
  36 H36            8.3005    -0.1368     6.1253 H       
  37 H37            7.6465     2.2103     5.6648 H       
  38 H38            8.0306     1.9794     3.9421 H       
  39 H39            5.5999     1.7156     4.3551 H       
  40 H40            5.9394     0.4173     5.5245 H       
  41 H41           10.3916     1.4253     4.5429 H       
  42 H42           10.0075     1.6562     6.2655 H       
  43 H43           10.7312     0.1270     5.7123 H       
@<TRIPOS>BOND
   1    1    2 1
   2    1    6 1
   3    1   21 1
   4    1   22 1
   5    2    3 1
   6    2   14 1
   7    2   23 1
   8    3    4 1
   9    3   24 1
  10    3   25 1
  11    4    5 ar
  12    4    7 ar
  13    5    6 1
  14    5   10 ar
  15    6   13 2
  16    7    8 ar
  17    8    9 ar
  18    8   11 1
  19    9   10 ar
  20   10   26 1
  21   11   12 1
  22   11   27 1
  23   12   15 1
  24   12   19 1
  25   12   28 1
  26   14   29 1
  27   14   30 1
  28   14   31 1
  29   15   16 1
  30   15   32 1
  31   15   33 1
  32   16   17 1
  33   16   34 1
  34   16   35 1
  35   17   18 1
  36   17   20 1
  37   17   36 1
  38   18   19 1
  39   18   37 1
  40   18   38 1
  41   19   39 1
  42   19   40 1
  43   20   41 1
  44   20   42 1
  45   20   43 1

#	End of record

