#	Name: ASD02500304
#	Creating user name:	WinNT
#	Creation time:	15. 06. 2019 20:22

#	Modifying user name:	WinNT
#	Modification time:	15. 06. 2019 20:22

#	Program:	/corina/corina34_cracker 3.40 0067  02.08.2006

@<TRIPOS>MOLECULE
ASD02500304
  71   74    0    0    0
SMALL
NO_CHARGES


@<TRIPOS>ATOM
   1 N1            -3.1496     2.6775     1.6771 N.ar    
   2 C2            -3.7637     1.5336     1.8583 C.ar    
   3 C3            -3.8298     0.9273     3.1111 C.ar    
   4 C4            -3.2445     1.5262     4.1900 C.ar    
   5 C5            -2.5855     2.7543     3.9916 C.ar    
   6 C6            -1.9614     3.4289     5.0527 C.ar    
   7 C7            -1.3345     4.6152     4.8201 C.ar    
   8 C8            -1.3044     5.1692     3.5421 C.ar    
   9 C9            -1.8991     4.5422     2.4906 C.ar    
  10 C10           -2.5563     3.3159     2.6908 C.ar    
  11 S11           -1.8465     5.2655     0.8848 S.o2    
  12 O12           -3.1619     5.1658     0.3565 O.2     
  13 O13           -1.1560     6.4998     1.0231 O.2     
  14 N14           -0.8893     4.2973    -0.0578 N.am    
  15 C15           -1.2665     2.9835    -0.3128 C.ar    
  16 C16           -2.3030     2.7189    -1.2038 C.ar    
  17 C17           -2.6787     1.4197    -1.4582 C.ar    
  18 C18           -2.0183     0.3652    -0.8209 C.ar    
  19 C19           -0.9779     0.6342     0.0732 C.ar    
  20 C20           -0.6032     1.9352     0.3191 C.ar    
  21 C21           -2.4189    -1.0287    -1.0911 C.2     
  22 O22           -3.5875    -1.2971    -1.2933 O.2     
  23 N23           -1.4896    -2.0046    -1.1137 N.am    
  24 C24           -0.0761    -1.7385    -0.7420 C.3     
  25 C25            0.1592    -2.1693     0.6316 C.3     
  26 N26           -0.2537    -3.5877     0.7878 N.am    
  27 C27           -1.6406    -3.8414     0.9660 C.3     
  28 C28           -2.4084    -4.2138    -0.3443 C.3     
  29 C29           -1.8196    -3.3350    -1.4885 C.3     
  30 C30            0.6471    -4.5898     0.7613 C.2     
  31 C31            0.2329    -5.9648     1.1078 C.ar    
  32 C32            1.1877    -6.9073     1.4961 C.ar    
  33 C33            0.7947    -8.1903     1.8191 C.ar    
  34 C34           -0.5471    -8.5433     1.7582 C.ar    
  35 C35           -1.4968    -7.6108     1.3729 C.ar    
  36 C36           -1.1149    -6.3248     1.0537 C.ar    
  37 O37            1.8006    -4.3621     0.4522 O.2     
  38 F38           -0.9276    -9.8003     2.0752 F       
  39 F39            1.7164    -9.1040     2.1945 F       
  40 H40           -4.2311     1.0485     1.0142 H       
  41 H41           -4.3437    -0.0153     3.2289 H       
  42 H42           -3.2864     1.0705     5.1682 H       
  43 H43           -1.9786     3.0098     6.0479 H       
  44 H44           -0.8546     5.1335     5.6370 H       
  45 H45           -0.8014     6.1116     3.3834 H       
  46 H46           -0.0654     4.6467    -0.4321 H       
  47 H47           -2.8130     3.5340    -1.6955 H       
  48 H48           -3.4830     1.2151    -2.1492 H       
  49 H49           -0.4661    -0.1784     0.5673 H       
  50 H50            0.2037     2.1435     1.0062 H       
  51 H51            0.5849    -2.2875    -1.4127 H       
  52 H52            0.1266    -0.6709    -0.8272 H       
  53 H53            1.2193    -2.0721     0.8658 H       
  54 H54           -0.4208    -1.5456     1.3118 H       
  55 H55           -1.7530    -4.6604     1.6764 H       
  56 H56           -2.1017    -2.9518     1.3951 H       
  57 H57           -2.2619    -5.2695    -0.5728 H       
  58 H58           -3.4711    -4.0034    -0.2241 H       
  59 H59           -2.5509    -3.2946    -2.2958 H       
  60 H60           -0.9199    -3.8200    -1.8672 H       
  61 H61            2.2312    -6.6329     1.5431 H       
  62 H62           -2.5389    -7.8905     1.3268 H       
  63 H63           -1.8571    -5.5981     0.7580 H       
  64 C64            8.4026    13.4880    12.1947 C.2     
  65 C65            8.4231    11.9812    12.1865 C.3     
  66 O66            9.4407    14.1063    12.1881 O.2     
  67 O67            7.2312    14.1433    12.2039 O.3     
  68 F68            9.7482    11.5329    12.1714 F       
  69 F69            7.7809    11.4998    13.3323 F       
  70 F70            7.7591    11.5121    11.0479 F       
  71 H71            7.2687    15.1096    12.2089 H       
@<TRIPOS>BOND
   1    1    2 ar
   2    1   10 ar
   3    2    3 ar
   4    2   40 1
   5    3    4 ar
   6    3   41 1
   7    4    5 ar
   8    4   42 1
   9    5    6 ar
  10    5   10 ar
  11    6    7 ar
  12    6   43 1
  13    7    8 ar
  14    7   44 1
  15    8    9 ar
  16    8   45 1
  17    9   10 ar
  18    9   11 1
  19   11   12 2
  20   11   13 2
  21   11   14 am
  22   14   15 1
  23   14   46 1
  24   15   16 ar
  25   15   20 ar
  26   16   17 ar
  27   16   47 1
  28   17   18 ar
  29   17   48 1
  30   18   19 ar
  31   18   21 1
  32   19   20 ar
  33   19   49 1
  34   20   50 1
  35   21   22 2
  36   21   23 am
  37   23   24 1
  38   23   29 1
  39   24   25 1
  40   24   51 1
  41   24   52 1
  42   25   26 1
  43   25   53 1
  44   25   54 1
  45   26   27 1
  46   26   30 am
  47   27   28 1
  48   27   55 1
  49   27   56 1
  50   28   29 1
  51   28   57 1
  52   28   58 1
  53   29   59 1
  54   29   60 1
  55   30   31 1
  56   30   37 2
  57   31   32 ar
  58   31   36 ar
  59   32   33 ar
  60   32   61 1
  61   33   34 ar
  62   33   39 1
  63   34   35 ar
  64   34   38 1
  65   35   36 ar
  66   35   62 1
  67   36   63 1
  68   64   65 1
  69   64   66 2
  70   64   67 1
  71   65   68 1
  72   65   69 1
  73   65   70 1
  74   67   71 1

#	End of record

