#	Name: ASD01890002
#	Creating user name:	WinNT
#	Creation time:	15. 06. 2019 19:50

#	Modifying user name:	WinNT
#	Modification time:	15. 06. 2019 19:50

#	Program:	/corina/corina34_cracker 3.40 0067  02.08.2006

@<TRIPOS>MOLECULE
ASD01890002
 124  125    0    0    0
SMALL
NO_CHARGES


@<TRIPOS>ATOM
   1 N1             0.6955     1.2807    -0.3839 N.am    
   2 C2             0.4720    -0.0886     0.1025 C.3     
   3 C3            -0.8640    -0.0881     0.8749 C.3     
   4 C4            -1.5977     1.1519     0.2992 C.3     
   5 C5            -0.4170     2.1326     0.0742 C.3     
   6 C6             0.3896    -1.0397    -1.0635 C.2     
   7 N7             0.1871    -2.3546    -0.8477 N.am    
   8 O8             0.5054    -0.6219    -2.1962 O.2     
   9 C9             0.1070    -3.2791    -1.9812 C.3     
  10 C10            0.4902    -4.6643    -1.5278 C.2     
  11 C11           -1.3234    -3.2978    -2.5240 C.3     
  12 O12            0.7999    -4.8599    -0.3716 O.2     
  13 N13            0.4890    -5.6857    -2.4071 N.am    
  14 C14            0.9659    -7.0080    -1.9946 C.3     
  15 C15            0.2786    -8.0685    -2.8155 C.2     
  16 C16            2.4779    -7.0953    -2.2114 C.3     
  17 N17            0.5826    -9.3681    -2.6282 N.am    
  18 O18           -0.5481    -7.7526    -3.6448 O.2     
  19 C19           -0.0855   -10.3991    -3.4262 C.3     
  20 C20           -1.4178   -10.7678    -2.7707 C.3     
  21 C21            0.7919   -11.6219    -3.5032 C.2     
  22 N22            0.3794   -12.7051    -4.1909 N.am    
  23 O23            1.8693   -11.6313    -2.9463 O.2     
  24 C24            2.8081    -6.7216    -3.6579 C.3     
  25 C25            4.3259    -6.6279    -3.8267 C.3     
  26 C26            2.2553    -7.7928    -4.6002 C.3     
  27 C27           -1.6689    -1.9224    -3.0983 C.3     
  28 C28            1.7465     1.6904    -1.1216 C.2     
  29 C29            1.7941     3.1025    -1.6460 C.3     
  30 O30            2.6538     0.9228    -1.3633 O.2     
  31 N31            2.4100     3.1092    -2.9752 N.am    
  32 C32            2.6210     3.9715    -0.6963 C.3     
  33 C33            2.6155     5.4183    -1.1940 C.3     
  34 C34            2.0148     3.9126     0.7072 C.3     
  35 O35            3.9647     3.4870    -0.6555 O.3     
  36 C36            2.1276     4.1003    -3.8438 C.2     
  37 O37            1.3636     4.9866    -3.5249 O.2     
  38 C38            2.7611     4.1072    -5.2111 C.3     
  39 N39            2.2970     5.2787    -5.9584 N.am    
  40 C40            2.3669     2.8340    -5.9623 C.3     
  41 C41            3.0520     5.7862    -6.9528 C.2     
  42 O42            4.1157     5.2731    -7.2289 O.2     
  43 C43            2.5746     6.9912    -7.7216 C.3     
  44 N44            3.2818     7.0637    -9.0071 N.3     
  45 C45            2.8578     8.2580    -6.9116 C.3     
  46 C46            2.2625     9.4686    -7.6334 C.3     
  47 C47            2.5456    10.7353    -6.8234 C.3     
  48 N48            1.9756    11.8945    -7.5145 N.pl3   
  49 C49            2.1057    13.1509    -6.9716 C.2     
  50 N50            2.7707    13.3195    -5.7802 N.pl3   
  51 N51            1.5986    14.1822    -7.5865 N.2     
  52 C52            3.0970     2.7814    -7.2796 C.ar    
  53 C53            4.3340     2.1689    -7.3591 C.ar    
  54 C54            5.0053     2.1194    -8.5655 C.ar    
  55 C55            4.4372     2.6850    -9.6977 C.ar    
  56 C56            3.1959     3.2991    -9.6153 C.ar    
  57 C57            2.5262     3.3409    -8.4078 C.ar    
  58 O58            5.0958     2.6381   -10.8856 O.3     
  59 C59           -3.0778    -1.9407    -3.6330 C.2     
  60 O60           -3.7378    -2.9503    -3.5620 O.2     
  61 O61           -3.5994    -0.8355    -4.1881 O.3     
  62 H62            1.2842    -0.3832     0.7671 H       
  63 H63           -1.4276    -0.9986     0.6712 H       
  64 H64           -0.6910     0.0284     1.9447 H       
  65 H65           -2.0942     0.9107    -0.6407 H       
  66 H66           -2.3071     1.5563     1.0213 H       
  67 H67           -0.1582     2.6349     1.0063 H       
  68 H68           -0.6717     2.8633    -0.6934 H       
  69 H69            0.0944    -2.6887     0.0582 H       
  70 H70            0.7891    -2.9519    -2.7659 H       
  71 H71           -1.4045    -4.0500    -3.3087 H       
  72 H72           -2.0152    -3.5387    -1.7169 H       
  73 H73            0.1722    -5.5452    -3.3132 H       
  74 H74            0.7407    -7.1625    -0.9394 H       
  75 H75            2.9825    -6.4064    -1.5340 H       
  76 H76            2.8153    -8.1126    -2.0129 H       
  77 H77            1.2438    -9.6208    -1.9650 H       
  78 H78           -0.2680   -10.0191    -4.4314 H       
  79 H79           -1.9149   -11.5349    -3.3644 H       
  80 H80           -1.2353   -11.1479    -1.7655 H       
  81 H81           -2.0524    -9.8834    -2.7150 H       
  82 H82           -0.4822   -12.6976    -4.6364 H       
  83 H83            0.9442   -13.4922    -4.2405 H       
  84 H84            2.3559    -5.7591    -3.8968 H       
  85 H85            4.7781    -7.5905    -3.5878 H       
  86 H86            4.5611    -6.3617    -4.8572 H       
  87 H87            4.7197    -5.8649    -3.1554 H       
  88 H88            1.1805    -7.6544    -4.7169 H       
  89 H89            2.7404    -7.7066    -5.5726 H       
  90 H90            2.4514    -8.7803    -4.1826 H       
  91 H91           -1.5878    -1.1702    -2.3136 H       
  92 H92           -0.9771    -1.6814    -3.9055 H       
  93 H93            0.7812     3.4996    -1.7128 H       
  94 H94            3.0210     2.4003    -3.2302 H       
  95 H95            1.5906     5.7880    -1.2251 H       
  96 H96            3.2046     6.0375    -0.5174 H       
  97 H97            3.0474     5.4603    -2.1939 H       
  98 H98            2.0998     2.8984     1.0974 H       
  99 H99            2.5490     4.6002     1.3629 H       
 100 H100           0.9636     4.1973     0.6611 H       
 101 H101           4.0443     2.5735    -0.3485 H       
 102 H102           3.8456     4.1477    -5.1089 H       
 103 H103           1.4463     5.6890    -5.7376 H       
 104 H104           2.6329     1.9623    -5.3644 H       
 105 H105           1.2919     2.8366    -6.1426 H       
 106 H106           1.5028     6.9066    -7.9008 H       
 107 H107           4.2780     7.1427    -8.8678 H       
 108 H108           3.0597     6.2686    -9.5873 H       
 109 H109           2.4066     8.1660    -5.9236 H       
 110 H110           3.9348     8.3900    -6.8083 H       
 111 H111           2.7137     9.5606    -8.6213 H       
 112 H112           1.1854     9.3366    -7.7367 H       
 113 H113           2.0945    10.6433    -5.8354 H       
 114 H114           3.6227    10.8673    -6.7201 H       
 115 H115           1.5065    11.7755    -8.3551 H       
 116 H116           3.1481    12.5520    -5.3226 H       
 117 H117           2.8625    14.2059    -5.3972 H       
 118 H118           1.6903    15.0687    -7.2035 H       
 119 H119           4.7759     1.7290    -6.4773 H       
 120 H120           5.9716     1.6411    -8.6270 H       
 121 H121           2.7516     3.7401   -10.4954 H       
 122 H122           1.5598     3.8188    -8.3431 H       
 123 H123           4.8939     1.8555   -11.4166 H       
 124 H124          -4.5068    -0.8957    -4.5169 H       
@<TRIPOS>BOND
   1    1    2 1
   2    1   28 am
   3    1    5 1
   4    2    3 1
   5    2    6 1
   6    2   62 1
   7    3    4 1
   8    3   63 1
   9    3   64 1
  10    4    5 1
  11    4   65 1
  12    4   66 1
  13    5   67 1
  14    5   68 1
  15    6    7 am
  16    6    8 2
  17    7    9 1
  18    7   69 1
  19    9   10 1
  20    9   11 1
  21    9   70 1
  22   10   12 2
  23   10   13 am
  24   11   27 1
  25   11   71 1
  26   11   72 1
  27   13   14 1
  28   13   73 1
  29   14   15 1
  30   14   16 1
  31   14   74 1
  32   15   17 am
  33   15   18 2
  34   16   24 1
  35   16   75 1
  36   16   76 1
  37   17   19 1
  38   17   77 1
  39   19   20 1
  40   19   21 1
  41   19   78 1
  42   20   79 1
  43   20   80 1
  44   20   81 1
  45   21   22 am
  46   21   23 2
  47   22   82 1
  48   22   83 1
  49   24   25 1
  50   24   26 1
  51   24   84 1
  52   25   85 1
  53   25   86 1
  54   25   87 1
  55   26   88 1
  56   26   89 1
  57   26   90 1
  58   27   59 1
  59   27   91 1
  60   27   92 1
  61   28   30 2
  62   28   29 1
  63   29   31 1
  64   29   32 1
  65   29   93 1
  66   31   36 am
  67   31   94 1
  68   32   33 1
  69   32   34 1
  70   32   35 1
  71   33   95 1
  72   33   96 1
  73   33   97 1
  74   34   98 1
  75   34   99 1
  76   34  100 1
  77   35  101 1
  78   36   37 2
  79   36   38 1
  80   38   39 1
  81   38   40 1
  82   38  102 1
  83   39   41 am
  84   39  103 1
  85   40   52 1
  86   40  104 1
  87   40  105 1
  88   41   42 2
  89   41   43 1
  90   43   44 1
  91   43   45 1
  92   43  106 1
  93   44  107 1
  94   44  108 1
  95   45   46 1
  96   45  109 1
  97   45  110 1
  98   46   47 1
  99   46  111 1
 100   46  112 1
 101   47   48 1
 102   47  113 1
 103   47  114 1
 104   48   49 1
 105   48  115 1
 106   49   50 1
 107   49   51 2
 108   50  116 1
 109   50  117 1
 110   51  118 1
 111   52   53 ar
 112   52   57 ar
 113   53   54 ar
 114   53  119 1
 115   54   55 ar
 116   54  120 1
 117   55   56 ar
 118   55   58 1
 119   56   57 ar
 120   56  121 1
 121   57  122 1
 122   58  123 1
 123   59   60 2
 124   59   61 1
 125   61  124 1

#	End of record

