#	Name: ASD01810010
#	Creating user name:	WinNT
#	Creation time:	15. 06. 2019 19:23

#	Modifying user name:	WinNT
#	Modification time:	15. 06. 2019 19:23

#	Program:	/corina/corina34_cracker 3.40 0067  02.08.2006

@<TRIPOS>MOLECULE
ASD01810010
  40   44    0    0    0
SMALL
NO_CHARGES


@<TRIPOS>ATOM
   1 N1            -0.0163     1.3481     0.0095 N.am    
   2 C2             0.0021    -0.0041     0.0020 C.2     
   3 C3            -1.2675    -0.7370    -0.3574 C.3     
   4 C4            -2.5158    -0.1240     0.2726 C.3     
   5 C5            -2.5124     1.3729     0.1210 C.ar    
   6 C6            -1.2663     1.9809     0.0315 C.ar    
   7 C7            -3.6307     2.1610     0.0682 C.ar    
   8 C8            -3.5042     3.5483    -0.0484 C.ar    
   9 C9            -2.2649     4.1479    -0.0988 C.ar    
  10 C10           -1.1123     3.3585    -0.0515 C.ar    
  11 C11            0.9552     2.3032     0.0053 C.ar    
  12 C12            0.3354     3.5826    -0.0417 C.ar    
  13 C13            1.0864     4.7513    -0.0675 C.ar    
  14 C14            2.4795     4.6099    -0.0388 C.ar    
  15 C15            3.0802     3.3495     0.0131 C.ar    
  16 C16            2.3470     2.1926     0.0387 C.ar    
  17 C17           -4.7741     4.3576    -0.1225 C.3     
  18 N18           -4.5095     5.7648     0.1895 N.3     
  19 C19           -3.4214     6.2782    -0.6580 C.3     
  20 C20           -2.1096     5.6431    -0.1968 C.3     
  21 O21            1.0139    -0.6129     0.2770 O.2     
  22 C22            3.3294     5.8155    -0.0643 C.2     
  23 O23            2.8196     6.9173    -0.1098 O.2     
  24 O24            4.6711     5.6946    -0.0372 O.3     
  25 H25           -1.3820    -0.7279    -1.4413 H       
  26 H26           -1.1802    -1.7717    -0.0259 H       
  27 H27           -3.4009    -0.5318    -0.2157 H       
  28 H28           -2.5435    -0.3769     1.3325 H       
  29 H29           -4.6111     1.7106     0.1164 H       
  30 H30            0.6177     5.7234    -0.1081 H       
  31 H31            4.1580     3.2853     0.0359 H       
  32 H32            2.8291     1.2270     0.0793 H       
  33 H33           -5.1885     4.2844    -1.1280 H       
  34 H34           -5.4951     3.9607     0.5922 H       
  35 H35           -5.3441     6.3218     0.0833 H       
  36 H36           -3.6110     6.0147    -1.6985 H       
  37 H37           -3.3592     7.3619    -0.5588 H       
  38 H38           -1.8380     6.0432     0.7800 H       
  39 H39           -1.3226     5.8785    -0.9133 H       
  40 H40            5.1861     6.5128    -0.0556 H       
@<TRIPOS>BOND
   1    1    2 am
   2    1   11 1
   3    1    6 1
   4    2    3 1
   5    2   21 2
   6    3    4 1
   7    3   25 1
   8    3   26 1
   9    4    5 1
  10    4   27 1
  11    4   28 1
  12    5    6 ar
  13    5    7 ar
  14    6   10 ar
  15    7    8 ar
  16    7   29 1
  17    8    9 ar
  18    8   17 1
  19    9   10 ar
  20    9   20 1
  21   10   12 1
  22   11   12 ar
  23   11   16 ar
  24   12   13 ar
  25   13   14 ar
  26   13   30 1
  27   14   15 ar
  28   14   22 1
  29   15   16 ar
  30   15   31 1
  31   16   32 1
  32   17   18 1
  33   17   33 1
  34   17   34 1
  35   18   19 1
  36   18   35 1
  37   19   20 1
  38   19   36 1
  39   19   37 1
  40   20   38 1
  41   20   39 1
  42   22   23 2
  43   22   24 1
  44   24   40 1

#	End of record

