#	Name: ASD03330858
#	Creating user name:	WinNT
#	Creation time:	15. 06. 2019 20:38

#	Modifying user name:	WinNT
#	Modification time:	15. 06. 2019 20:38

#	Program:	/corina/corina34_cracker 3.40 0067  02.08.2006

@<TRIPOS>MOLECULE
ASD03330858
  70   72    0    0    0
SMALL
NO_CHARGES


@<TRIPOS>ATOM
   1 N1            -0.2345     0.8321     1.6092 N.pl3   
   2 C2            -0.4706    -0.5057     1.5463 C.2     
   3 C3             0.5299    -1.5889     1.8542 C.3     
   4 N4             1.2065    -1.2742     3.1222 N.3     
   5 C5             2.3928    -0.4456     2.8988 C.3     
   6 C6             2.1822     0.5034     1.7225 C.3     
   7 C7             1.0237     1.4571     2.0267 C.3     
   8 C8            -1.3798     1.4676     1.2264 C.2     
   9 N9            -2.2909     0.5623     0.9560 N.2     
  10 C10           -1.7621    -0.6666     1.1464 C.2     
  11 C11           -2.4583    -1.9511     0.9546 C.2     
  12 O12           -1.8721    -2.9970     1.1585 O.2     
  13 N13           -3.7449    -1.9668     0.5533 N.am    
  14 C14            1.5511    -2.5006     3.8536 C.3     
  15 C15           -1.5639     2.9319     1.1325 C.ar    
  16 C16           -2.5922     3.4589     0.3495 C.ar    
  17 C17           -2.7607     4.8243     0.2644 C.ar    
  18 C18           -1.9088     5.6753     0.9564 C.ar    
  19 C19           -0.8845     5.1546     1.7365 C.ar    
  20 C20           -0.7134     3.7902     1.8311 C.ar    
  21 O21           -2.0777     7.0204     0.8697 O.3     
  22 C22           -1.1266     7.8390     1.5534 C.3     
  23 C23           -1.0767     9.2199     0.8965 C.3     
  24 C24           -1.5405     7.9861     3.0190 C.3     
  25 C25           -5.5636    -3.0625    -0.6218 C.2     
  26 C26           -4.4371    -3.2438     0.3627 C.3     
  27 C27           -5.0020    -3.7226     1.7016 C.3     
  28 C28           -5.9021    -2.6360     2.2932 C.3     
  29 O29           -6.1196    -1.9887    -0.7160 O.2     
  30 N30           -5.9533    -4.0935    -1.3974 N.am    
  31 C31           -6.9748    -3.8900    -2.4276 C.3     
  32 C32           -5.8181    -4.9983     1.4839 C.3     
  33 C33           -3.8505    -4.0123     2.6665 C.3     
  34 H34            0.0152    -2.5456     1.9435 H       
  35 H35            1.2661    -1.6435     1.0522 H       
  36 H36            2.5968     0.1372     3.7970 H       
  37 H37            3.2461    -1.0908     2.6901 H       
  38 H38            3.0918     1.0801     1.5549 H       
  39 H39            1.9505    -0.0743     0.8277 H       
  40 H40            1.1662     2.3896     1.4806 H       
  41 H41            0.9914     1.6616     3.0969 H       
  42 H42           -4.2125    -1.1327     0.3907 H       
  43 H43            2.1595    -3.1439     3.2179 H       
  44 H44            2.1117    -2.2425     4.7520 H       
  45 H45            0.6377    -3.0255     4.1335 H       
  46 H46           -3.2548     2.7977    -0.1892 H       
  47 H47           -3.5559     5.2328    -0.3416 H       
  48 H48           -0.2238     5.8195     2.2729 H       
  49 H49            0.0805     3.3859     2.4415 H       
  50 H50           -0.1419     7.3748     1.4988 H       
  51 H51           -2.0614     9.6840     0.9511 H       
  52 H52           -0.3512     9.8443     1.4180 H       
  53 H53           -0.7818     9.1151    -0.1476 H       
  54 H54           -2.5252     8.4502     3.0736 H       
  55 H55           -1.5760     7.0023     3.4870 H       
  56 H56           -0.8150     8.6105     3.5405 H       
  57 H57           -3.7349    -3.9840    -0.0210 H       
  58 H58           -6.7224    -2.4296     1.6057 H       
  59 H59           -6.3045    -2.9771     3.2470 H       
  60 H60           -5.3206    -1.7272     2.4483 H       
  61 H61           -5.5573    -4.9703    -1.2735 H       
  62 H62           -7.1575    -4.8297    -2.9488 H       
  63 H63           -7.8985    -3.5479    -1.9608 H       
  64 H64           -6.6285    -3.1409    -3.1397 H       
  65 H65           -5.1851    -5.7619     1.0319 H       
  66 H66           -6.1931    -5.3577     2.4422 H       
  67 H67           -6.6576    -4.7841     0.8225 H       
  68 H68           -3.2691    -3.1035     2.8216 H       
  69 H69           -4.2529    -4.3534     3.6204 H       
  70 H70           -3.2093    -4.7864     2.2451 H       
@<TRIPOS>BOND
   1    1    2 1
   2    1    7 1
   3    1    8 1
   4    2    3 1
   5    2   10 2
   6    3    4 1
   7    3   34 1
   8    3   35 1
   9    4    5 1
  10    4   14 1
  11    5    6 1
  12    5   36 1
  13    5   37 1
  14    6    7 1
  15    6   38 1
  16    6   39 1
  17    7   40 1
  18    7   41 1
  19    8    9 2
  20    8   15 1
  21    9   10 1
  22   10   11 1
  23   11   12 2
  24   11   13 am
  25   13   26 1
  26   13   42 1
  27   14   43 1
  28   14   44 1
  29   14   45 1
  30   15   16 ar
  31   15   20 ar
  32   16   17 ar
  33   16   46 1
  34   17   18 ar
  35   17   47 1
  36   18   19 ar
  37   18   21 1
  38   19   20 ar
  39   19   48 1
  40   20   49 1
  41   21   22 1
  42   22   23 1
  43   22   24 1
  44   22   50 1
  45   23   51 1
  46   23   52 1
  47   23   53 1
  48   24   54 1
  49   24   55 1
  50   24   56 1
  51   25   29 2
  52   25   30 am
  53   25   26 1
  54   26   27 1
  55   26   57 1
  56   27   28 1
  57   27   32 1
  58   27   33 1
  59   28   58 1
  60   28   59 1
  61   28   60 1
  62   30   31 1
  63   30   61 1
  64   31   62 1
  65   31   63 1
  66   31   64 1
  67   32   65 1
  68   32   66 1
  69   32   67 1
  70   33   68 1
  71   33   69 1
  72   33   70 1

#	End of record

