#	Name: ASD00071005
#	Creating user name:	WinNT
#	Creation time:	15. 06. 2019 18:30

#	Modifying user name:	WinNT
#	Modification time:	15. 06. 2019 18:30

#	Program:	/corina/corina34_cracker 3.40 0067  02.08.2006

@<TRIPOS>MOLECULE
ASD00071005
  37   39    0    0    0
SMALL
NO_CHARGES


@<TRIPOS>ATOM
   1 C1            -0.1118     1.3396     0.0104 C.2     
   2 O2            -0.6556     0.9243    -0.9953 O.2     
   3 C3             1.1925     2.0143    -0.0836 C.ar    
   4 C4             2.3792     1.2890     0.1071 C.ar    
   5 C5             3.6013     1.9346     0.0163 C.ar    
   6 C6             3.6551     3.2882    -0.2606 C.ar    
   7 C7             2.4927     4.0127    -0.4498 C.ar    
   8 C8             1.2596     3.3868    -0.3703 C.ar    
   9 O9             0.1211     4.0986    -0.5629 O.3     
  10 C10            0.2599     5.5103    -0.7350 C.3     
  11 O11            2.3292    -0.0389     0.3797 O.3     
  12 C12            3.5769    -0.7112     0.5616 C.3     
  13 N13           -2.6631     0.4777     2.5632 N.ar    
  14 C14           -2.0634     0.6373     1.4105 C.ar    
  15 C15           -0.7635     1.1721     1.3253 C.ar    
  16 C16           -0.0986     1.5407     2.4894 C.ar    
  17 C17           -0.7636     1.3601     3.7141 C.ar    
  18 C18           -0.1545     1.7090     4.9313 C.ar    
  19 C19           -0.8282     1.5200     6.0997 C.ar    
  20 C20           -2.1140     0.9843     6.1036 C.ar    
  21 C21           -2.7339     0.6352     4.9424 C.ar    
  22 C22           -2.0727     0.8150     3.7161 C.ar    
  23 Cl23          -2.8889     0.1780    -0.0460 Cl      
  24 H24            4.5156     1.3786     0.1626 H       
  25 H25            4.6124     3.7834    -0.3292 H       
  26 H26            2.5466     5.0696    -0.6652 H       
  27 H27            0.8056     5.9276     0.1113 H       
  28 H28            0.8075     5.7120    -1.6556 H       
  29 H29           -0.7277     5.9682    -0.7919 H       
  30 H30            3.3944    -1.7649     0.7730 H       
  31 H31            4.1740    -0.6208    -0.3458 H       
  32 H32            4.1140    -0.2609     1.3964 H       
  33 H33            0.8990     1.9531     2.4535 H       
  34 H34            0.8423     2.1245     4.9403 H       
  35 H35           -0.3595     1.7884     7.0349 H       
  36 H36           -2.6277     0.8433     7.0431 H       
  37 H37           -3.7311     0.2209     4.9643 H       
@<TRIPOS>BOND
   1    1    2 2
   2    1    3 1
   3    1   15 1
   4    3    4 ar
   5    3    8 ar
   6    4    5 ar
   7    4   11 1
   8    5    6 ar
   9    5   24 1
  10    6    7 ar
  11    6   25 1
  12    7    8 ar
  13    7   26 1
  14    8    9 1
  15    9   10 1
  16   10   27 1
  17   10   28 1
  18   10   29 1
  19   11   12 1
  20   12   30 1
  21   12   31 1
  22   12   32 1
  23   13   14 ar
  24   13   22 ar
  25   14   15 ar
  26   14   23 1
  27   15   16 ar
  28   16   17 ar
  29   16   33 1
  30   17   18 ar
  31   17   22 ar
  32   18   19 ar
  33   18   34 1
  34   19   20 ar
  35   19   35 1
  36   20   21 ar
  37   20   36 1
  38   21   22 ar
  39   21   37 1

#	End of record

