#	Name: ASD06020014
#	Creating user name:	WinNT
#	Creation time:	15. 06. 2019 21:04

#	Modifying user name:	WinNT
#	Modification time:	15. 06. 2019 21:04

#	Program:	/corina/corina34_cracker 3.40 0067  02.08.2006

@<TRIPOS>MOLECULE
ASD06020014
  48   52    0    0    0
SMALL
NO_CHARGES


@<TRIPOS>ATOM
   1 C1            -2.2636     5.4465     0.0248 C.2     
   2 O2            -3.2162     6.2002     0.0063 O.2     
   3 O3             1.2719     6.9669     1.2386 O.3     
   4 C4             0.1162     7.8073     1.1936 C.3     
   5 C5            -0.7653     7.3903     0.0108 C.3     
   6 N6            -1.0131     5.9429     0.1043 N.am    
   7 C7             0.1447     5.0533     0.2876 C.3     
   8 C8             0.9819     5.5842     1.4569 C.3     
   9 C9            -1.6233     1.8475    -0.2329 C.ar    
  10 N10           -1.4435     3.1498    -0.1802 N.ar    
  11 C11           -2.4772     3.9788    -0.0341 C.ar    
  12 C12           -3.7590     3.4473     0.0629 C.ar    
  13 C13           -3.9043     2.0579     0.0020 C.ar    
  14 N14           -2.8208     1.3033    -0.1449 N.ar    
  15 N15           -5.1598     1.4767     0.0942 N.pl3   
  16 C16           -5.3050     0.1028    -0.0766 C.ar    
  17 C17           -6.5831    -0.4651    -0.0919 C.ar    
  18 C18           -6.7223    -1.8470    -0.2644 C.ar    
  19 C19           -5.5311    -2.6012    -0.4167 C.ar    
  20 C20           -4.3287    -1.9680    -0.3899 C.ar    
  21 N21           -4.2345    -0.6575    -0.2288 N.ar    
  22 S22           -8.1885     0.2374     0.0721 S.3     
  23 C23           -8.9138    -1.3557    -0.1010 C.2     
  24 N24           -7.9935    -2.2507    -0.2588 N.2     
  25 C25          -10.3653    -1.6318    -0.0699 C.ar    
  26 C26          -10.8344    -2.9392    -0.2179 C.ar    
  27 C27          -12.1918    -3.1898    -0.1873 C.ar    
  28 C28          -13.0875    -2.1501    -0.0107 C.ar    
  29 C29          -12.6317    -0.8530     0.1361 C.ar    
  30 C30          -11.2751    -0.5870     0.1134 C.ar    
  31 F31          -10.8306     0.6801     0.2625 F       
  32 Cl32          -9.7133    -4.2458    -0.4402 Cl      
  33 H33           -0.4462     7.7029     2.1214 H       
  34 H34            0.4254     8.8451     1.0691 H       
  35 H35           -1.7124     7.9283     0.0512 H       
  36 H36           -0.2543     7.6156    -0.9253 H       
  37 H37           -0.1998     4.0437     0.5113 H       
  38 H38            0.7473     5.0433    -0.6206 H       
  39 H39            1.9138     5.0226     1.5219 H       
  40 H40            0.4226     5.4717     2.3857 H       
  41 H41           -0.7640     1.2050    -0.3564 H       
  42 H42           -4.6185     4.0902     0.1822 H       
  43 H43           -5.9369     2.0274     0.2776 H       
  44 H44           -5.5790    -3.6715    -0.5527 H       
  45 H45           -3.4259    -2.5494    -0.5062 H       
  46 H46          -12.5555    -4.2003    -0.3019 H       
  47 H47          -14.1481    -2.3527     0.0123 H       
  48 H48          -13.3367    -0.0464     0.2732 H       
@<TRIPOS>BOND
   1    1    2 2
   2    1    6 am
   3    1   11 1
   4    3    4 1
   5    3    8 1
   6    4    5 1
   7    4   33 1
   8    4   34 1
   9    5    6 1
  10    5   35 1
  11    5   36 1
  12    6    7 1
  13    7    8 1
  14    7   37 1
  15    7   38 1
  16    8   39 1
  17    8   40 1
  18    9   10 ar
  19    9   14 ar
  20    9   41 1
  21   10   11 ar
  22   11   12 ar
  23   12   13 ar
  24   12   42 1
  25   13   14 ar
  26   13   15 1
  27   15   16 1
  28   15   43 1
  29   16   17 ar
  30   16   21 ar
  31   17   18 ar
  32   17   22 1
  33   18   19 ar
  34   18   24 1
  35   19   20 ar
  36   19   44 1
  37   20   21 ar
  38   20   45 1
  39   22   23 1
  40   23   24 2
  41   23   25 1
  42   25   26 ar
  43   25   30 ar
  44   26   27 ar
  45   26   32 1
  46   27   28 ar
  47   27   46 1
  48   28   29 ar
  49   28   47 1
  50   29   30 ar
  51   29   48 1
  52   30   31 1

#	End of record

