#	Name: ASD06390031
#	Creating user name:	WinNT
#	Creation time:	15. 06. 2019 21:06

#	Modifying user name:	WinNT
#	Modification time:	15. 06. 2019 21:06

#	Program:	/corina/corina34_cracker 3.40 0067  02.08.2006

@<TRIPOS>MOLECULE
ASD06390031
  64   67    0    0    0
SMALL
NO_CHARGES


@<TRIPOS>ATOM
   1 C1            -0.0077     1.4016     0.0792 C.ar    
   2 C2             0.0090     0.0185     0.0728 C.ar    
   3 C3             1.2115    -0.6642     0.0506 C.ar    
   4 C4             2.4047     0.0336     0.0342 C.ar    
   5 C5             2.3926     1.4297     0.0401 C.ar    
   6 C6             1.1768     2.1099     0.0630 C.ar    
   7 F7             3.5793    -0.6335     0.0130 F       
   8 C8             3.6685     2.1854     0.0232 C.ar    
   9 C9             4.5092     2.1058    -1.0975 C.ar    
  10 C10            4.0173     2.9682     1.1113 C.ar    
  11 C11            5.2224     3.6785     1.0886 C.ar    
  12 C12            6.0652     3.5851    -0.0465 C.ar    
  13 C13            5.6861     2.7913    -1.1354 C.ar    
  14 Cl14           4.0449     1.1223    -2.4506 Cl      
  15 N15            5.6063     4.4514     2.1171 N.ar    
  16 C16            6.7479     5.1101     2.0677 C.ar    
  17 N17            7.5680     5.0507     1.0219 N.ar    
  18 C18            7.2795     4.3158    -0.0420 C.ar    
  19 N19            8.1390     4.2642    -1.1189 N.3     
  20 C20            9.5181     4.5573    -0.7064 C.3     
  21 C21           10.4637     4.3136    -1.8873 C.3     
  22 N22            9.9811     5.0893    -3.0400 N.am    
  23 C23            8.5695     4.9519    -3.4295 C.3     
  24 C24            7.6985     5.1705    -2.1878 C.3     
  25 C25           10.8106     5.9041    -3.7216 C.2     
  26 O26           11.9474     6.0820    -3.3278 O.2     
  27 C27           10.3410     6.5781    -4.9418 C.2     
  28 C28           11.1226     7.4614    -5.5564 C.2     
  29 N29            7.1073     5.8957     3.1480 N.pl3   
  30 C30            6.2263     5.9833     4.3153 C.3     
  31 C31            6.8531     6.9099     5.3590 C.3     
  32 C32            5.9469     7.0000     6.5597 C.2     
  33 O33            4.9026     6.3836     6.5788 O.2     
  34 N34            6.2970     7.7654     7.6123 N.am    
  35 C35            5.4161     7.8529     8.7796 C.3     
  36 C36            7.5586     8.5099     7.5892 C.3     
  37 H37           -0.9502     1.9288     0.0924 H       
  38 H38           -0.9209    -0.5306     0.0855 H       
  39 H39            1.2183    -1.7442     0.0464 H       
  40 H40            1.1614     3.1898     0.0673 H       
  41 H41            3.3646     3.0300     1.9695 H       
  42 H42            6.3272     2.7188    -2.0015 H       
  43 H43            9.5901     5.5984    -0.3916 H       
  44 H44            9.7959     3.9062     0.1225 H       
  45 H45           11.4703     4.6378    -1.6233 H       
  46 H46           10.4714     3.2527    -2.1373 H       
  47 H47            8.3239     5.6981    -4.1851 H       
  48 H48            8.3952     3.9523    -3.8277 H       
  49 H49            6.6568     4.9641    -2.4334 H       
  50 H50            7.7959     6.2030    -1.8524 H       
  51 H51            9.3614     6.3558    -5.3386 H       
  52 H52           10.7778     7.9562    -6.4523 H       
  53 H53           12.1021     7.6837    -5.1597 H       
  54 H54            7.9425     6.3887     3.1327 H       
  55 H55            5.2582     6.3811     4.0109 H       
  56 H56            6.0924     4.9904     4.7447 H       
  57 H57            7.8212     6.5121     5.6634 H       
  58 H58            6.9871     7.9028     4.9296 H       
  59 H59            5.2822     6.8600     9.2089 H       
  60 H60            5.8627     8.5131     9.5231 H       
  61 H61            4.4480     8.2507     8.4751 H       
  62 H62            7.3898     9.4974     7.1598 H       
  63 H63            7.9367     8.6156     8.6060 H       
  64 H64            8.2877     7.9706     6.9846 H       
@<TRIPOS>BOND
   1    1    2 ar
   2    1    6 ar
   3    1   37 1
   4    2    3 ar
   5    2   38 1
   6    3    4 ar
   7    3   39 1
   8    4    5 ar
   9    4    7 1
  10    5    6 ar
  11    5    8 1
  12    6   40 1
  13    8   10 ar
  14    8    9 ar
  15    9   14 1
  16    9   13 ar
  17   10   11 ar
  18   10   41 1
  19   11   12 ar
  20   11   15 ar
  21   12   13 ar
  22   12   18 ar
  23   13   42 1
  24   15   16 ar
  25   16   17 ar
  26   16   29 1
  27   17   18 ar
  28   18   19 1
  29   19   20 1
  30   19   24 1
  31   20   21 1
  32   20   43 1
  33   20   44 1
  34   21   22 1
  35   21   45 1
  36   21   46 1
  37   22   23 1
  38   22   25 am
  39   23   24 1
  40   23   47 1
  41   23   48 1
  42   24   49 1
  43   24   50 1
  44   25   26 2
  45   25   27 1
  46   27   28 2
  47   27   51 1
  48   28   52 1
  49   28   53 1
  50   29   30 1
  51   29   54 1
  52   30   31 1
  53   30   55 1
  54   30   56 1
  55   31   32 1
  56   31   57 1
  57   31   58 1
  58   32   33 2
  59   32   34 am
  60   34   35 1
  61   34   36 1
  62   35   59 1
  63   35   60 1
  64   35   61 1
  65   36   62 1
  66   36   63 1
  67   36   64 1

#	End of record

