#	Name: ASD01811062
#	Creating user name:	WinNT
#	Creation time:	15. 06. 2019 19:25

#	Modifying user name:	WinNT
#	Modification time:	15. 06. 2019 19:25

#	Program:	/corina/corina34_cracker 3.40 0067  02.08.2006

@<TRIPOS>MOLECULE
ASD01811062
  43   46    0    0    0
SMALL
NO_CHARGES


@<TRIPOS>ATOM
   1 C1            -0.0168     1.3900     0.0097 C.ar    
   2 C2             0.0021    -0.0041     0.0020 C.ar    
   3 C3            -1.2666    -0.8034    -0.0063 C.3     
   4 C4            -2.4679    -0.0118     0.3945 C.2     
   5 C5            -2.5143     1.3297     0.4108 C.2     
   6 C6            -1.3107     2.1077     0.0384 C.2     
   7 C7            -1.4901    -1.3545    -1.4161 C.3     
   8 C8            -2.6938    -2.2612    -1.4160 C.ar    
   9 C9            -3.9494    -1.7395    -1.6701 C.ar    
  10 C10           -5.0552    -2.5653    -1.6713 C.ar    
  11 C11           -4.9051    -3.9268    -1.4159 C.ar    
  12 C12           -3.6379    -4.4469    -1.1605 C.ar    
  13 C13           -2.5382    -3.6129    -1.1674 C.ar    
  14 C14           -6.0904    -4.8195    -1.4153 C.ar    
  15 C15           -5.9402    -6.1810    -1.1599 C.ar    
  16 C16           -7.0462    -7.0068    -1.1607 C.ar    
  17 C17           -8.3018    -6.4851    -1.4149 C.ar    
  18 C18           -8.4566    -5.1344    -1.6695 C.ar    
  19 C19           -7.3584    -4.2984    -1.6647 C.ar    
  20 O20           -1.3827     3.2898    -0.2340 O.2     
  21 C21           -3.7575     2.0249     0.7975 C.2     
  22 O22           -4.7428     1.3830     1.1023 O.2     
  23 O23           -3.7996     3.3714     0.8124 O.3     
  24 C24            1.1953     2.0825     0.0018 C.ar    
  25 C25            2.3601     1.3292    -0.0070 C.ar    
  26 N26            2.2848     0.0119    -0.0068 N.ar    
  27 N27            1.1719    -0.6239    -0.0024 N.ar    
  28 H28           -1.1557    -1.6424     0.6806 H       
  29 H29           -3.3550    -0.5525     0.6894 H       
  30 H30           -1.6576    -0.5281    -2.1068 H       
  31 H31           -0.6110    -1.9176    -1.7296 H       
  32 H32           -4.0647    -0.6840    -1.8677 H       
  33 H33           -6.0352    -2.1569    -1.8695 H       
  34 H34           -3.5159    -5.5015    -0.9619 H       
  35 H35           -1.5555    -4.0150    -0.9695 H       
  36 H36           -4.9602    -6.5895    -0.9620 H       
  37 H37           -6.9309    -8.0622    -0.9628 H       
  38 H38           -9.1644    -7.1349    -1.4149 H       
  39 H39           -9.4392    -4.7324    -1.8677 H       
  40 H40           -7.4804    -3.2438    -1.8633 H       
  41 H41           -4.6357     3.7816     1.0724 H       
  42 H42            1.2250     3.1621     0.0022 H       
  43 H43            3.3231     1.8181    -0.0143 H       
@<TRIPOS>BOND
   1    1    2 ar
   2    1   24 ar
   3    1    6 1
   4    2    3 1
   5    2   27 ar
   6    3    4 1
   7    3    7 1
   8    3   28 1
   9    4    5 2
  10    4   29 1
  11    5    6 1
  12    5   21 1
  13    6   20 2
  14    7    8 1
  15    7   30 1
  16    7   31 1
  17    8    9 ar
  18    8   13 ar
  19    9   10 ar
  20    9   32 1
  21   10   11 ar
  22   10   33 1
  23   11   12 ar
  24   11   14 1
  25   12   13 ar
  26   12   34 1
  27   13   35 1
  28   14   15 ar
  29   14   19 ar
  30   15   16 ar
  31   15   36 1
  32   16   17 ar
  33   16   37 1
  34   17   18 ar
  35   17   38 1
  36   18   19 ar
  37   18   39 1
  38   19   40 1
  39   21   22 2
  40   21   23 1
  41   23   41 1
  42   24   25 ar
  43   24   42 1
  44   25   26 ar
  45   25   43 1
  46   26   27 ar

#	End of record

