#	Name: ASD01230789
#	Creating user name:	WinNT
#	Creation time:	15. 06. 2019 19:15

#	Modifying user name:	WinNT
#	Modification time:	15. 06. 2019 19:15

#	Program:	/corina/corina34_cracker 3.40 0067  02.08.2006

@<TRIPOS>MOLECULE
ASD01230789
  40   42    0    0    0
SMALL
NO_CHARGES


@<TRIPOS>ATOM
   1 C1            -0.0166     1.3737     0.0096 C.2     
   2 C2             0.0021    -0.0041     0.0020 C.2     
   3 C3            -1.2146    -0.7002     0.0083 C.2     
   4 C4            -2.3849    -0.0394     0.0105 C.2     
   5 N5            -2.4623     1.3312     0.0009 N.pl3   
   6 C6            -1.3175     2.0758     0.0320 C.2     
   7 C7            -3.8098     1.9044    -0.0497 C.3     
   8 C8            -3.8783     3.1902     0.7794 C.3     
   9 S9            -2.6220     4.3262     0.1115 S.o2    
  10 N10           -1.2619     3.3847     0.0817 N.am    
  11 C11            1.2497     2.1409     0.0016 C.ar    
  12 O12           -2.8867     4.6253    -1.2522 O.2     
  13 O13           -2.3214     5.3523     1.0474 O.2     
  14 C14            1.8363     2.5098    -1.2094 C.ar    
  15 C15            3.0154     3.2247    -1.2129 C.ar    
  16 C16            3.6191     3.5771    -0.0133 C.ar    
  17 C17            3.0383     3.2118     1.1938 C.ar    
  18 C18            1.8564     2.5018     1.2052 C.ar    
  19 C19            1.1824     2.1270    -2.5120 C.3     
  20 C20            1.2265     2.1063     2.5159 C.3     
  21 O21            4.7816     4.2810    -0.0206 O.3     
  22 C22            5.3486     4.6103     1.2491 C.3     
  23 H23            0.9399    -0.5395    -0.0090 H       
  24 H24           -1.2115    -1.7802     0.0110 H       
  25 H25           -3.3018    -0.6099     0.0199 H       
  26 H26           -4.0660     2.1300    -1.0849 H       
  27 H27           -4.5230     1.1821     0.3474 H       
  28 H28           -4.8684     3.6374     0.6903 H       
  29 H29           -3.6618     2.9701     1.8248 H       
  30 H30            3.4700     3.5106    -2.1499 H       
  31 H31            3.5108     3.4877     2.1249 H       
  32 H32            0.4916     2.9132    -2.8167 H       
  33 H33            1.9468     1.9980    -3.2782 H       
  34 H34            0.6356     1.1928    -2.3833 H       
  35 H35            0.5456     2.8919     2.8435 H       
  36 H36            0.6730     1.1762     2.3869 H       
  37 H37            2.0054     1.9647     3.2652 H       
  38 H38            6.2716     5.1708     1.1004 H       
  39 H39            4.6424     5.2171     1.8159 H       
  40 H40            5.5642     3.6945     1.7993 H       
@<TRIPOS>BOND
   1    1    2 2
   2    1   11 1
   3    1    6 1
   4    2    3 1
   5    2   23 1
   6    3    4 2
   7    3   24 1
   8    4    5 1
   9    4   25 1
  10    5    6 1
  11    5    7 1
  12    6   10 2
  13    7    8 1
  14    7   26 1
  15    7   27 1
  16    8    9 1
  17    8   28 1
  18    8   29 1
  19    9   10 am
  20    9   12 2
  21    9   13 2
  22   11   14 ar
  23   11   18 ar
  24   14   15 ar
  25   14   19 1
  26   15   16 ar
  27   15   30 1
  28   16   17 ar
  29   16   21 1
  30   17   18 ar
  31   17   31 1
  32   18   20 1
  33   19   32 1
  34   19   33 1
  35   19   34 1
  36   20   35 1
  37   20   36 1
  38   20   37 1
  39   21   22 1
  40   22   38 1
  41   22   39 1
  42   22   40 1

#	End of record

