#	Name: ASD01914181
#	Creating user name:	WinNT
#	Creation time:	15. 06. 2019 20:03

#	Modifying user name:	WinNT
#	Modification time:	15. 06. 2019 20:03

#	Program:	/corina/corina34_cracker 3.40 0067  02.08.2006

@<TRIPOS>MOLECULE
ASD01914181
  35   37    0    0    0
SMALL
NO_CHARGES


@<TRIPOS>ATOM
   1 C1            -0.0164     1.3560     0.0095 C.2     
   2 N2             0.0021    -0.0041     0.0020 N.pl3   
   3 C3             1.3259    -0.3966    -0.0127 C.ar    
   4 C4             2.0816     0.7878    -0.0136 C.ar    
   5 N5             1.1993     1.8198     0.0004 N.2     
   6 C6             3.4769     0.7132    -0.0273 C.ar    
   7 C7             4.0939    -0.5058    -0.0397 C.ar    
   8 C8             3.3491    -1.6762    -0.0394 C.ar    
   9 C9             1.9700    -1.6271    -0.0255 C.ar    
  10 C10           -1.2632     2.2024     0.0202 C.3     
  11 C11           -1.6781     2.4810     1.4663 C.3     
  12 C12           -2.8959     3.3077     1.4768 C.1     
  13 C13           -3.8672     3.9671     1.4851 C.1     
  14 C14           -5.0520     4.7714     1.4953 C.ar    
  15 C15           -5.6189     5.1536     2.7118 C.ar    
  16 C16           -6.7635     5.9307     2.7048 C.ar    
  17 C17           -7.3058     6.3014     1.4819 C.ar    
  18 C18           -6.6924     5.8874     0.3139 C.ar    
  19 N19           -5.5997     5.1522     0.3471 N.ar    
  20 C20           -1.1659    -0.8884     0.0089 C.3     
  21 Cl21           1.0448    -3.0961    -0.0240 Cl      
  22 H22            4.0668     1.6179    -0.0284 H       
  23 H23            5.1725    -0.5587    -0.0503 H       
  24 H24            3.8518    -2.6320    -0.0497 H       
  25 H25           -1.0665     3.1456    -0.4895 H       
  26 H26           -2.0662     1.6729    -0.4925 H       
  27 H27           -1.8748     1.5378     1.9760 H       
  28 H28           -0.8751     3.0105     1.9791 H       
  29 H29           -5.1707     4.8470     3.6453 H       
  30 H30           -7.2251     6.2417     3.6304 H       
  31 H31           -8.1989     6.9073     1.4432 H       
  32 H32           -7.1126     6.1742    -0.6387 H       
  33 H33           -1.4657    -1.1022    -1.0171 H       
  34 H34           -0.9133    -1.8200     0.5152 H       
  35 H35           -1.9876    -0.4010     0.5335 H       
@<TRIPOS>BOND
   1    1    2 1
   2    1    5 2
   3    1   10 1
   4    2    3 1
   5    2   20 1
   6    3    4 ar
   7    3    9 ar
   8    4    5 1
   9    4    6 ar
  10    6    7 ar
  11    6   22 1
  12    7    8 ar
  13    7   23 1
  14    8    9 ar
  15    8   24 1
  16    9   21 1
  17   10   11 1
  18   10   25 1
  19   10   26 1
  20   11   12 1
  21   11   27 1
  22   11   28 1
  23   12   13 3
  24   13   14 1
  25   14   15 ar
  26   14   19 ar
  27   15   16 ar
  28   15   29 1
  29   16   17 ar
  30   16   30 1
  31   17   18 ar
  32   17   31 1
  33   18   19 ar
  34   18   32 1
  35   20   33 1
  36   20   34 1
  37   20   35 1

#	End of record

