#	Name: ASD01800001
#	Creating user name:	WinNT
#	Creation time:	15. 06. 2019 19:23

#	Modifying user name:	WinNT
#	Modification time:	15. 06. 2019 19:23

#	Program:	/corina/corina34_cracker 3.40 0067  02.08.2006

@<TRIPOS>MOLECULE
ASD01800001
  47   50    0    0    0
SMALL
NO_CHARGES


@<TRIPOS>ATOM
   1 C1            -0.0237     1.3763     0.0118 C.ar    
   2 C2             0.0047    -0.0144     0.0524 C.ar    
   3 C3             1.2255    -0.6856     0.0344 C.ar    
   4 C4             2.4107     0.0304    -0.0236 C.ar    
   5 C5             2.3857     1.4155    -0.0637 C.ar    
   6 C6             1.1681     2.0924    -0.0468 C.ar    
   7 C7             1.1422     3.5756    -0.0898 C.ar    
   8 C8            -1.2640    -0.7818     0.1155 C.ar    
   9 C9             2.3344     4.2944    -0.1471 C.ar    
  10 C10            2.3045     5.6737    -0.1874 C.ar    
  11 C11            1.0938     6.3424    -0.1709 C.ar    
  12 C12           -0.0928     5.6339    -0.1141 C.ar    
  13 C13           -0.0746     4.2542    -0.0788 C.ar    
  14 C14           -1.2376    -2.1742     0.1562 C.ar    
  15 C15           -2.4205    -2.8829     0.2153 C.ar    
  16 C16           -3.6307    -2.2132     0.2340 C.ar    
  17 C17           -3.6627    -0.8310     0.1938 C.ar    
  18 C18           -2.4856    -0.1122     0.1399 C.ar    
  19 O19            3.6003    -0.6274    -0.0406 O.3     
  20 C20            3.8684    -1.3781    -1.1263 C.2     
  21 N21            5.0696    -1.9764    -1.2519 N.am    
  22 C22            5.3186    -2.8249    -2.3366 C.ar    
  23 O23            3.0274    -1.5159    -1.9924 O.2     
  24 C24            6.1213    -3.9462    -2.1729 C.ar    
  25 C25            6.3647    -4.7819    -3.2452 C.ar    
  26 C26            5.8105    -4.5028    -4.4809 C.ar    
  27 C27            5.0108    -3.3870    -4.6472 C.ar    
  28 C28            4.7588    -2.5505    -3.5775 C.ar    
  29 H29           -0.9689     1.8987     0.0212 H       
  30 H30            1.2482    -1.7649     0.0659 H       
  31 H31            3.3110     1.9706    -0.1085 H       
  32 H32            3.2802     3.7732    -0.1596 H       
  33 H33            3.2280     6.2318    -0.2314 H       
  34 H34            1.0749     7.4218    -0.2022 H       
  35 H35           -1.0353     6.1610    -0.1015 H       
  36 H36           -1.0017     3.7019    -0.0344 H       
  37 H37           -0.2933    -2.6981     0.1413 H       
  38 H38           -2.4012    -3.9623     0.2466 H       
  39 H39           -4.5539    -2.7717     0.2799 H       
  40 H40           -4.6103    -0.3131     0.2086 H       
  41 H41           -2.5117     0.9670     0.1085 H       
  42 H42            5.7614    -1.8189    -0.5906 H       
  43 H43            6.5550    -4.1643    -1.2082 H       
  44 H44            6.9889    -5.6541    -3.1185 H       
  45 H45            6.0029    -5.1574    -5.3181 H       
  46 H46            4.5796    -3.1715    -5.6137 H       
  47 H47            4.1341    -1.6792    -3.7080 H       
@<TRIPOS>BOND
   1    1    2 ar
   2    1    6 ar
   3    1   29 1
   4    2    3 ar
   5    2    8 1
   6    3    4 ar
   7    3   30 1
   8    4    5 ar
   9    4   19 1
  10    5    6 ar
  11    5   31 1
  12    6    7 1
  13    7    9 ar
  14    7   13 ar
  15    8   14 ar
  16    8   18 ar
  17    9   10 ar
  18    9   32 1
  19   10   11 ar
  20   10   33 1
  21   11   12 ar
  22   11   34 1
  23   12   13 ar
  24   12   35 1
  25   13   36 1
  26   14   15 ar
  27   14   37 1
  28   15   16 ar
  29   15   38 1
  30   16   17 ar
  31   16   39 1
  32   17   18 ar
  33   17   40 1
  34   18   41 1
  35   19   20 1
  36   20   21 am
  37   20   23 2
  38   21   22 1
  39   21   42 1
  40   22   24 ar
  41   22   28 ar
  42   24   25 ar
  43   24   43 1
  44   25   26 ar
  45   25   44 1
  46   26   27 ar
  47   26   45 1
  48   27   28 ar
  49   27   46 1
  50   28   47 1

#	End of record

