#	Name: ASD01810307
#	Creating user name:	WinNT
#	Creation time:	15. 06. 2019 19:24

#	Modifying user name:	WinNT
#	Modification time:	15. 06. 2019 19:24

#	Program:	/corina/corina34_cracker 3.40 0067  02.08.2006

@<TRIPOS>MOLECULE
ASD01810307
  50   53    0    0    0
SMALL
NO_CHARGES


@<TRIPOS>ATOM
   1 C1             1.1563     2.2516    -0.5138 C.ar    
   2 C2             0.7796     0.9165    -0.4988 C.ar    
   3 C3             1.7221    -0.0795    -0.3472 C.ar    
   4 C4             3.0692     0.2528    -0.2072 C.ar    
   5 C5             3.4460     1.6060    -0.2231 C.ar    
   6 C6             2.4814     2.6018    -0.3771 C.ar    
   7 N7             4.0214    -0.7325    -0.0539 N.pl3   
   8 C8             5.3258    -0.4654     0.0854 C.2     
   9 C9             5.8164     0.8250     0.0859 C.2     
  10 C10            4.8739     1.9440    -0.0741 C.2     
  11 O11            5.2567     3.1008    -0.0806 O.2     
  12 C12            3.5871    -2.1316    -0.0427 C.3     
  13 C13            3.4445    -2.6248    -1.4595 C.ar    
  14 C14            4.5275    -2.5711    -2.3215 C.ar    
  15 C15            4.4007    -3.0226    -3.6223 C.ar    
  16 C16            3.1821    -3.5318    -4.0636 C.ar    
  17 C17            2.0968    -3.5834    -3.1914 C.ar    
  18 C18            2.2345    -3.1348    -1.8934 C.ar    
  19 C19            3.0397    -4.0177    -5.4593 C.2     
  20 C20            7.2559     1.0771     0.2426 C.2     
  21 O21            7.7227     2.3417     0.2415 O.3     
  22 O22            8.0254     0.1452     0.3733 O.2     
  23 F23            1.3403    -1.3754    -0.3340 F       
  24 F24            5.7088    -2.0766    -1.8910 F       
  25 C25            1.9101    -4.5379    -6.0205 C.2     
  26 N26            2.1987    -4.8554    -7.2987 N.pl3   
  27 N27            3.5380    -4.5257    -7.5398 N.2     
  28 C28            4.0442    -4.0197    -6.4465 C.2     
  29 C29            1.2713    -5.4444    -8.2678 C.3     
  30 C30            1.2174    -4.5673    -9.5203 C.3     
  31 C31            0.2488    -5.1824   -10.5324 C.3     
  32 H32            0.4074     3.0199    -0.6378 H       
  33 H33           -0.2625     0.6541    -0.6065 H       
  34 H34            2.7721     3.6418    -0.3895 H       
  35 H35            6.0173    -1.2868     0.2017 H       
  36 H36            4.3270    -2.7375     0.4802 H       
  37 H37            2.6271    -2.2100     0.4676 H       
  38 H38            5.2448    -2.9801    -4.2946 H       
  39 H39            1.1498    -3.9773    -3.5296 H       
  40 H40            1.3933    -3.1752    -1.2173 H       
  41 H41            8.6769     2.4575     0.3476 H       
  42 H42            0.9575    -4.6716    -5.5297 H       
  43 H43            5.0583    -3.6705    -6.3199 H       
  44 H44            1.6142    -6.4431    -8.5382 H       
  45 H45            0.2768    -5.5088    -7.8262 H       
  46 H46            0.8745    -3.5685    -9.2499 H       
  47 H47            2.2118    -4.5029    -9.9618 H       
  48 H48           -0.7457    -5.2468   -10.0908 H       
  49 H49            0.2104    -4.5575   -11.4246 H       
  50 H50            0.5917    -6.1811   -10.8027 H       
@<TRIPOS>BOND
   1    1    2 ar
   2    1    6 ar
   3    1   32 1
   4    2    3 ar
   5    2   33 1
   6    3    4 ar
   7    3   23 1
   8    4    5 ar
   9    4    7 1
  10    5    6 ar
  11    5   10 1
  12    6   34 1
  13    7    8 1
  14    7   12 1
  15    8    9 2
  16    8   35 1
  17    9   10 1
  18    9   20 1
  19   10   11 2
  20   12   13 1
  21   12   36 1
  22   12   37 1
  23   13   14 ar
  24   13   18 ar
  25   14   15 ar
  26   14   24 1
  27   15   16 ar
  28   15   38 1
  29   16   17 ar
  30   16   19 1
  31   17   18 ar
  32   17   39 1
  33   18   40 1
  34   19   25 2
  35   19   28 1
  36   20   21 1
  37   20   22 2
  38   21   41 1
  39   25   26 1
  40   25   42 1
  41   26   27 1
  42   26   29 1
  43   27   28 2
  44   28   43 1
  45   29   30 1
  46   29   44 1
  47   29   45 1
  48   30   31 1
  49   30   46 1
  50   30   47 1
  51   31   48 1
  52   31   49 1
  53   31   50 1

#	End of record

