#	Name: ASD01883314
#	Creating user name:	WinNT
#	Creation time:	15. 06. 2019 19:46

#	Modifying user name:	WinNT
#	Modification time:	15. 06. 2019 19:46

#	Program:	/corina/corina34_cracker 3.40 0067  02.08.2006

@<TRIPOS>MOLECULE
ASD01883314
  48   49    0    0    0
SMALL
NO_CHARGES


@<TRIPOS>ATOM
   1 N1            -0.0161     1.3363    -0.0882 N.am    
   2 C2             0.0018    -0.0091    -0.0702 C.2     
   3 C3            -1.2154    -0.7322    -0.0425 C.2     
   4 C4            -2.4288    -0.0128    -0.0343 C.2     
   5 C5            -2.3784     1.3990    -0.0541 C.2     
   6 C6            -1.1846     2.0303    -0.0746 C.2     
   7 O7             1.0654    -0.6052    -0.0783 O.2     
   8 C8            -1.2146    -2.1640    -0.0236 C.1     
   9 N9            -1.2140    -3.2999    -0.0087 N.1     
  10 C10            1.2521     2.0693    -0.1168 C.3     
  11 C11            1.6722     2.3049    -1.5690 C.3     
  12 C12            2.9966     3.0704    -1.5989 C.3     
  13 C13            4.1014     2.2019    -0.9938 C.3     
  14 C14            3.3539     3.4150    -3.0462 C.3     
  15 C15           -3.6853    -0.6992    -0.0069 C.1     
  16 C16           -4.7154    -1.2619     0.0156 C.1     
  17 C17           -5.9719    -1.9482     0.0430 C.ar    
  18 C18           -7.1667    -1.2240     0.0509 C.ar    
  19 C19           -8.3784    -1.8965     0.0774 C.ar    
  20 C20           -8.4022    -3.2865     0.0966 C.ar    
  21 C21           -7.2201    -4.0041     0.0893 C.ar    
  22 C22           -6.0082    -3.3466     0.0561 C.ar    
  23 N23           -9.5761    -1.1774     0.0854 N.pl3   
  24 C24           -9.5528     0.2832     0.1964 C.3     
  25 C25          -10.8553    -1.8839    -0.0171 C.3     
  26 H26           -3.2934     1.9728    -0.0483 H       
  27 H27           -1.1581     3.1099    -0.0897 H       
  28 H28            1.1288     3.0285     0.3860 H       
  29 H29            2.0196     1.4875     0.3936 H       
  30 H30            1.7955     1.3457    -2.0718 H       
  31 H31            0.9047     2.8867    -2.0794 H       
  32 H32            2.8986     3.9889    -1.0203 H       
  33 H33            4.1995     1.2834    -1.5724 H       
  34 H34            5.0449     2.7473    -1.0151 H       
  35 H35            3.8468     1.9565     0.0373 H       
  36 H36            2.5669     4.0337    -3.4773 H       
  37 H37            4.2975     3.9603    -3.0675 H       
  38 H38            3.4520     2.4964    -3.6248 H       
  39 H39           -7.1462    -0.1443     0.0366 H       
  40 H40           -9.3477    -3.8079     0.1177 H       
  41 H41           -7.2461    -5.0837     0.1047 H       
  42 H42           -5.0874    -3.9109     0.0502 H       
  43 H43           -9.5075     0.7227    -0.8000 H       
  44 H44          -10.4560     0.6236     0.7029 H       
  45 H45           -8.6776     0.5902     0.7690 H       
  46 H46          -10.6719    -2.9450    -0.1861 H       
  47 H47          -11.4168    -1.7551     0.9082 H       
  48 H48          -11.4292    -1.4772    -0.8499 H       
@<TRIPOS>BOND
   1    1    2 am
   2    1   10 1
   3    1    6 1
   4    2    3 1
   5    2    7 2
   6    3    4 2
   7    3    8 1
   8    4    5 1
   9    4   15 1
  10    5    6 2
  11    5   26 1
  12    6   27 1
  13    8    9 3
  14   10   11 1
  15   10   28 1
  16   10   29 1
  17   11   12 1
  18   11   30 1
  19   11   31 1
  20   12   13 1
  21   12   14 1
  22   12   32 1
  23   13   33 1
  24   13   34 1
  25   13   35 1
  26   14   36 1
  27   14   37 1
  28   14   38 1
  29   15   16 3
  30   16   17 1
  31   17   18 ar
  32   17   22 ar
  33   18   19 ar
  34   18   39 1
  35   19   20 ar
  36   19   23 1
  37   20   21 ar
  38   20   40 1
  39   21   22 ar
  40   21   41 1
  41   22   42 1
  42   23   24 1
  43   23   25 1
  44   24   43 1
  45   24   44 1
  46   24   45 1
  47   25   46 1
  48   25   47 1
  49   25   48 1

#	End of record

