#	Name: ASD09740003
#	Creating user name:	WinNT
#	Creation time:	15. 06. 2019 21:22

#	Modifying user name:	WinNT
#	Modification time:	15. 06. 2019 21:22

#	Program:	/corina/corina34_cracker 3.40 0067  02.08.2006

@<TRIPOS>MOLECULE
ASD09740003
  34   37    0    0    0
SMALL
NO_CHARGES


@<TRIPOS>ATOM
   1 N1            -0.0144     1.2085     0.0087 N.2     
   2 O2             0.0021    -0.0041     0.0020 O.3     
   3 C3             1.2061     1.6798    -0.0004 C.2     
   4 N4             2.0457     0.6235    -0.0141 N.2     
   5 C5             1.2698    -0.4440    -0.0125 C.2     
   6 C6             1.7125    -1.8545    -0.0238 C.ar    
   7 C7             0.7708    -2.8847    -0.0204 C.ar    
   8 C8             3.0738    -2.1617    -0.0438 C.ar    
   9 C9             3.4802    -3.4801    -0.0548 C.ar    
  10 C10            2.5417    -4.4966    -0.0461 C.ar    
  11 C11            1.1906    -4.1988    -0.0316 C.ar    
  12 C12            1.5955     3.1123     0.0035 C.ar    
  13 C13            2.9411     3.4681    -0.0079 C.ar    
  14 C14            3.2981     4.8016    -0.0048 C.ar    
  15 C15            2.3220     5.7795     0.0102 C.ar    
  16 C16            0.9800     5.4330     0.0222 C.ar    
  17 C17            0.6125     4.1029     0.0129 C.ar    
  18 C18           -0.2570     6.3057     0.0398 C.3     
  19 C19           -1.4120     5.3780    -0.3933 C.3     
  20 C20           -0.8965     3.9872     0.0291 C.3     
  21 H21           -0.2841    -2.6536    -0.0087 H       
  22 H22            3.8074    -1.3692    -0.0511 H       
  23 H23            4.5333    -3.7191    -0.0707 H       
  24 H24            2.8650    -5.5270    -0.0551 H       
  25 H25            0.4630    -4.9969    -0.0244 H       
  26 H26            3.7036     2.7033    -0.0189 H       
  27 H27            4.3413     5.0808    -0.0137 H       
  28 H28            2.6069     6.8213     0.0128 H       
  29 H29           -0.4357     6.6883     1.0447 H       
  30 H30           -0.1487     7.1296    -0.6656 H       
  31 H31           -2.3309     5.6301     0.1360 H       
  32 H32           -1.5605     5.4219    -1.4723 H       
  33 H33           -1.2260     3.2297    -0.6820 H       
  34 H34           -1.2460     3.7429     1.0323 H       
@<TRIPOS>BOND
   1    1    2 1
   2    1    3 2
   3    2    5 1
   4    3    4 1
   5    3   12 1
   6    4    5 2
   7    5    6 1
   8    6    7 ar
   9    6    8 ar
  10    7   11 ar
  11    7   21 1
  12    8    9 ar
  13    8   22 1
  14    9   10 ar
  15    9   23 1
  16   10   11 ar
  17   10   24 1
  18   11   25 1
  19   12   13 ar
  20   12   17 ar
  21   13   14 ar
  22   13   26 1
  23   14   15 ar
  24   14   27 1
  25   15   16 ar
  26   15   28 1
  27   16   17 ar
  28   16   18 1
  29   17   20 1
  30   18   19 1
  31   18   29 1
  32   18   30 1
  33   19   20 1
  34   19   31 1
  35   19   32 1
  36   20   33 1
  37   20   34 1

#	End of record

