#	Name: ASD05380124
#	Creating user name:	WinNT
#	Creation time:	15. 06. 2019 20:59

#	Modifying user name:	WinNT
#	Modification time:	15. 06. 2019 20:59

#	Program:	/corina/corina34_cracker 3.40 0067  02.08.2006

@<TRIPOS>MOLECULE
ASD05380124
  56   60    0    0    0
SMALL
NO_CHARGES


@<TRIPOS>ATOM
   1 C1            -0.2684     1.7421    -0.3089 C.ar    
   2 C2            -0.0030     0.3787    -0.5682 C.ar    
   3 C3             0.6341     2.7196    -0.7222 C.ar    
   4 C4             1.7837     2.3461    -1.3839 C.ar    
   5 C5             2.0473     1.0074    -1.6409 C.ar    
   6 C6             1.1685     0.0257    -1.2404 C.ar    
   7 N7            -0.8959    -0.5556    -0.1560 N.2     
   8 C8            -1.9852    -0.2270     0.4695 C.2     
   9 N9            -2.3211     1.0588     0.7610 N.am    
  10 C10           -1.5076     2.0805     0.4061 C.2     
  11 C11           -3.5171     1.3271     1.4394 C.ar    
  12 C12           -4.6867     1.5532     0.7227 C.ar    
  13 C13           -5.9002     1.8611     2.7645 C.ar    
  14 C14           -2.9256    -1.3256     0.8935 C.3     
  15 N15           -2.9272    -2.3848    -0.1186 N.pl3   
  16 C16           -4.0261    -3.2153    -0.2490 C.ar    
  17 N17           -5.0872    -3.0649     0.5359 N.ar    
  18 O18           -1.7952     3.2356     0.6608 O.2     
  19 C19           -4.0461    -4.2325    -1.2188 C.ar    
  20 C20           -5.1878    -5.0459    -1.3073 C.ar    
  21 N21           -6.2036    -4.8289    -0.4779 N.ar    
  22 C22           -6.1455    -3.8565     0.4176 C.ar    
  23 N23           -3.1753    -4.6617    -2.1653 N.2     
  24 C24           -3.6976    -5.6619    -2.8125 C.2     
  25 N25           -4.9399    -5.9376    -2.3201 N.pl3   
  26 C26           -5.8704     1.8186     1.3860 C.ar    
  27 C27           -4.7308     1.6297     3.4959 C.ar    
  28 C28           -3.5348     1.3615     2.8240 C.ar    
  29 C29           -2.4652    -1.9018     2.2340 C.3     
  30 C30           -4.7581     1.6741     4.9668 C.2     
  31 C31            0.3549     4.1750    -0.4481 C.3     
  32 N32           -7.2264    -3.6584     1.2609 N.pl3   
  33 O33           -3.7428     1.4731     5.5984 O.2     
  34 C34           -6.0480     1.9695     5.6879 C.3     
  35 H35            2.4855     3.1013    -1.7058 H       
  36 H36            2.9528     0.7325    -2.1613 H       
  37 H37            1.3841    -1.0124    -1.4462 H       
  38 H38           -4.6705     1.5218    -0.3567 H       
  39 H39           -6.8269     2.0687     3.2788 H       
  40 H40           -3.9325    -0.9216     0.9983 H       
  41 H41           -2.1579    -2.5038    -0.6973 H       
  42 H42           -3.2188    -6.1951    -3.6205 H       
  43 H43           -5.5378    -6.6361    -2.6290 H       
  44 H44           -6.7751     1.9936     0.8227 H       
  45 H45           -2.6281     1.1814     3.3824 H       
  46 H46           -1.4462    -2.2766     2.1376 H       
  47 H47           -2.4949    -1.1214     2.9944 H       
  48 H48           -3.1265    -2.7180     2.5250 H       
  49 H49            0.6750     4.4220     0.5641 H       
  50 H50            0.9016     4.7906    -1.1625 H       
  51 H51           -0.7137     4.3650    -0.5478 H       
  52 H52           -7.2011    -2.9506     1.9237 H       
  53 H53           -8.0086    -4.2275     1.1887 H       
  54 H54           -6.8448     2.1212     4.9597 H       
  55 H55           -6.3026     1.1306     6.3355 H       
  56 H56           -5.9297     2.8705     6.2899 H       
@<TRIPOS>BOND
   1    1    2 ar
   2    1    3 ar
   3    1   10 1
   4    2    7 1
   5    2    6 ar
   6    3    4 ar
   7    3   31 1
   8    4    5 ar
   9    4   35 1
  10    5    6 ar
  11    5   36 1
  12    6   37 1
  13    7    8 2
  14    8    9 1
  15    8   14 1
  16    9   10 am
  17    9   11 1
  18   10   18 2
  19   11   12 ar
  20   11   28 ar
  21   12   26 ar
  22   12   38 1
  23   13   26 ar
  24   13   27 ar
  25   13   39 1
  26   14   15 1
  27   14   29 1
  28   14   40 1
  29   15   16 1
  30   15   41 1
  31   16   17 ar
  32   16   19 ar
  33   17   22 ar
  34   19   20 ar
  35   19   23 1
  36   20   21 ar
  37   20   25 1
  38   21   22 ar
  39   22   32 1
  40   23   24 2
  41   24   25 1
  42   24   42 1
  43   25   43 1
  44   26   44 1
  45   27   30 1
  46   27   28 ar
  47   28   45 1
  48   29   46 1
  49   29   47 1
  50   29   48 1
  51   30   33 2
  52   30   34 1
  53   31   49 1
  54   31   50 1
  55   31   51 1
  56   32   52 1
  57   32   53 1
  58   34   54 1
  59   34   55 1
  60   34   56 1

#	End of record

