#	Name: ASD02480007
#	Creating user name:	WinNT
#	Creation time:	15. 06. 2019 20:22

#	Modifying user name:	WinNT
#	Modification time:	15. 06. 2019 20:22

#	Program:	/corina/corina34_cracker 3.40 0067  02.08.2006

@<TRIPOS>MOLECULE
ASD02480007
  34   35    0    0    0
SMALL
NO_CHARGES


@<TRIPOS>ATOM
   1 C1            -0.0167     1.3793     0.0096 C.ar    
   2 C2             0.0021    -0.0041     0.0020 C.ar    
   3 C3             1.2075    -0.6889    -0.0127 C.ar    
   4 C4             2.3982     0.0030    -0.0199 C.ar    
   5 C5             2.3909     1.4029    -0.0127 C.ar    
   6 C6             1.1691     2.0894     0.0021 C.ar    
   7 C7             3.6570     2.1482    -0.0198 C.2     
   8 C8             4.9684     1.4058    -0.0348 C.3     
   9 O9             3.6468     3.3610    -0.0136 O.2     
  10 C10            6.1055     2.3947    -0.0396 C.2     
  11 C11            6.5769     2.9679    -1.3105 C.ar    
  12 C12            6.6913     2.7547     1.1213 C.2     
  13 C13            7.8683     2.6907    -1.7704 C.ar    
  14 C14            8.3027     3.2315    -2.9620 C.ar    
  15 C15            7.4644     4.0467    -3.7026 C.ar    
  16 C16            6.1850     4.3257    -3.2542 C.ar    
  17 C17            5.7339     3.7878    -2.0674 C.ar    
  18 F18            1.1505     3.4402     0.0087 F       
  19 Br19          -1.6257    -0.9664     0.0124 Br      
  20 C20            7.7947     3.7143     1.1166 C.2     
  21 O21            8.1843     4.1880     0.0664 O.2     
  22 O22            8.3804     4.0743     2.2774 O.3     
  23 H23           -0.9598     1.9054     0.0169 H       
  24 H24            1.2128    -1.7688    -0.0182 H       
  25 H25            3.3356    -0.5332    -0.0306 H       
  26 H26            5.0390     0.7752     0.8514 H       
  27 H27            5.0238     0.7841    -0.9284 H       
  28 H28            6.3453     2.3341     2.0539 H       
  29 H29            8.5237     2.0551    -1.1935 H       
  30 H30            9.2997     3.0187    -3.3184 H       
  31 H31            7.8105     4.4676    -4.6350 H       
  32 H32            5.5369     4.9630    -3.8375 H       
  33 H33            4.7352     4.0061    -1.7190 H       
  34 H34            9.0994     4.7125     2.1737 H       
@<TRIPOS>BOND
   1    1    2 ar
   2    1    6 ar
   3    1   23 1
   4    2    3 ar
   5    2   19 1
   6    3    4 ar
   7    3   24 1
   8    4    5 ar
   9    4   25 1
  10    5    6 ar
  11    5    7 1
  12    6   18 1
  13    7    8 1
  14    7    9 2
  15    8   10 1
  16    8   26 1
  17    8   27 1
  18   10   11 1
  19   10   12 2
  20   11   13 ar
  21   11   17 ar
  22   12   20 1
  23   12   28 1
  24   13   14 ar
  25   13   29 1
  26   14   15 ar
  27   14   30 1
  28   15   16 ar
  29   15   31 1
  30   16   17 ar
  31   16   32 1
  32   17   33 1
  33   20   21 2
  34   20   22 1
  35   22   34 1

#	End of record

