#	Name: ASD01811579
#	Creating user name:	WinNT
#	Creation time:	15. 06. 2019 19:27

#	Modifying user name:	WinNT
#	Modification time:	15. 06. 2019 19:27

#	Program:	/corina/corina34_cracker 3.40 0067  02.08.2006

@<TRIPOS>MOLECULE
ASD01811579
  35   37    0    0    0
SMALL
NO_CHARGES


@<TRIPOS>ATOM
   1 C1             0.0008     1.4675     0.1838 C.2     
   2 C2             0.0109    -0.0067     0.0871 C.ar    
   3 C3             1.1560    -0.6715    -0.3594 C.ar    
   4 C4             1.1661    -2.0486    -0.4505 C.ar    
   5 C5             0.0464    -2.7782    -0.1010 C.ar    
   6 C6            -1.1037    -2.1266     0.3465 C.ar    
   7 C7            -1.1197    -0.7383     0.4466 C.ar    
   8 O8             1.0224     2.0958    -0.0084 O.2     
   9 O9            -1.1427     2.1152     0.4797 O.3     
  10 C10           -2.3031    -2.9112     0.7198 C.2     
  11 N11           -3.4927    -2.3290     1.0708 N.pl3   
  12 C12           -4.4621    -3.3928     1.3753 C.3     
  13 C13           -3.6400    -4.6919     1.1485 C.3     
  14 N14           -2.3186    -4.2020     0.7368 N.2     
  15 O15           -4.6680    -4.7841     3.2821 O.3     
  16 C16           -4.7494    -3.3962     2.8922 C.3     
  17 C17           -3.5389    -5.3168     2.5569 C.3     
  18 C18            0.0666    -4.2816    -0.2037 C.3     
  19 C19            2.3819     0.1167    -0.7428 C.3     
  20 H20            2.0531    -2.5581    -0.7969 H       
  21 H21           -2.0058    -0.2299     0.7969 H       
  22 H22           -1.1000     3.0799     0.5320 H       
  23 H23           -3.6664    -1.3756     1.1119 H       
  24 H24           -5.3610    -3.3395     0.7610 H       
  25 H25           -4.0893    -5.3575     0.4115 H       
  26 H26           -3.9990    -2.8090     3.4215 H       
  27 H27           -5.7473    -3.0047     3.0900 H       
  28 H28           -3.6063    -6.4030     2.4953 H       
  29 H29           -2.6062    -5.0207     3.0368 H       
  30 H30            0.2898    -4.7096     0.7736 H       
  31 H31           -0.9072    -4.6359    -0.5417 H       
  32 H32            0.8320    -4.5867    -0.9173 H       
  33 H33            2.9447     0.3726     0.1549 H       
  34 H34            3.0069    -0.4827    -1.4049 H       
  35 H35            2.0809     1.0302    -1.2557 H       
@<TRIPOS>BOND
   1    1    2 1
   2    1    8 2
   3    1    9 1
   4    2    3 ar
   5    2    7 ar
   6    3    4 ar
   7    3   19 1
   8    4    5 ar
   9    4   20 1
  10    5    6 ar
  11    5   18 1
  12    6    7 ar
  13    6   10 1
  14    7   21 1
  15    9   22 1
  16   10   11 1
  17   10   14 2
  18   11   12 1
  19   11   23 1
  20   12   13 1
  21   12   16 1
  22   12   24 1
  23   13   14 1
  24   13   17 1
  25   13   25 1
  26   15   16 1
  27   15   17 1
  28   16   26 1
  29   16   27 1
  30   17   28 1
  31   17   29 1
  32   18   30 1
  33   18   31 1
  34   18   32 1
  35   19   33 1
  36   19   34 1
  37   19   35 1

#	End of record

