#	Name: ASD02500763
#	Creating user name:	WinNT
#	Creation time:	15. 06. 2019 20:23

#	Modifying user name:	WinNT
#	Modification time:	15. 06. 2019 20:23

#	Program:	/corina/corina34_cracker 3.40 0067  02.08.2006

@<TRIPOS>MOLECULE
ASD02500763
  49   52    0    0    0
SMALL
NO_CHARGES


@<TRIPOS>ATOM
   1 N1            -0.0165     1.3641     0.0095 N.pl3   
   2 C2             0.0021    -0.0041     0.0020 C.2     
   3 C3             1.2701    -0.4444    -0.0124 C.2     
   4 C4             2.1342     0.7385    -0.0143 C.ar    
   5 C5             3.5172     0.9301    -0.0265 C.ar    
   6 C6             4.0264     2.1979    -0.0246 C.ar    
   7 C7             3.1795     3.2979    -0.0106 C.ar    
   8 C8             1.8122     3.1318     0.0020 C.ar    
   9 C9             1.2718     1.8497    -0.0002 C.ar    
  10 C10           -1.2269     2.1893     0.0200 C.3     
  11 S11            5.7718     2.4388    -0.0393 S.o2    
  12 O12            6.0035     3.7288     0.5098 O.2     
  13 O13            6.3450     1.2528     0.4937 O.2     
  14 N14            6.2428     2.5141    -1.6251 N.am    
  15 C15            6.2827     3.8012    -2.3333 C.3     
  16 C16            7.6895     3.9993    -2.9111 C.3     
  17 N17            8.0757     2.7802    -3.6353 N.am    
  18 C18            8.0358     1.4930    -2.9272 C.3     
  19 C19            6.6343     1.2957    -2.3477 C.3     
  20 S20            8.5467     2.8555    -5.2211 S.o2    
  21 O21            8.3156     1.5653    -5.7701 O.2     
  22 O22            7.9731     4.0412    -5.7543 O.2     
  23 C23           10.2920     3.0970    -5.2359 C.ar    
  24 C24           11.1423     2.0049    -5.2492 C.ar    
  25 C25           12.5138     2.1959    -5.2607 C.ar    
  26 C26           13.0337     3.4765    -5.2589 C.ar    
  27 C27           12.1857     4.5677    -5.2456 C.ar    
  28 C28           10.8138     4.3791    -5.2398 C.ar    
  29 F29            9.9850     5.4460    -5.2329 F       
  30 F30           10.6344     0.7530    -5.2506 F       
  31 H31           -0.8737    -0.6360     0.0073 H       
  32 H32            1.5921    -1.4753    -0.0211 H       
  33 H33            4.1822     0.0791    -0.0371 H       
  34 H34            3.5970     4.2940    -0.0092 H       
  35 H35            1.1617     3.9939     0.0132 H       
  36 H36           -1.5218     2.3888     1.0502 H       
  37 H37           -1.0284     3.1319    -0.4901 H       
  38 H38           -2.0311     1.6612    -0.4924 H       
  39 H39            5.5523     3.7964    -3.1423 H       
  40 H40            6.0561     4.6089    -1.6372 H       
  41 H41            7.6875     4.8468    -3.5965 H       
  42 H42            8.3953     4.1825    -2.1009 H       
  43 H43            8.2624     0.6854    -3.6232 H       
  44 H44            8.7662     1.4978    -2.1181 H       
  45 H45            6.6398     0.4490    -1.6613 H       
  46 H46            5.9295     1.1084    -3.1578 H       
  47 H47           13.1774     1.3439    -5.2708 H       
  48 H48           14.1035     3.6245    -5.2675 H       
  49 H49           12.5930     5.5679    -5.2438 H       
@<TRIPOS>BOND
   1    1    2 1
   2    1    9 1
   3    1   10 1
   4    2    3 2
   5    2   31 1
   6    3    4 1
   7    3   32 1
   8    4    5 ar
   9    4    9 ar
  10    5    6 ar
  11    5   33 1
  12    6    7 ar
  13    6   11 1
  14    7    8 ar
  15    7   34 1
  16    8    9 ar
  17    8   35 1
  18   10   36 1
  19   10   37 1
  20   10   38 1
  21   11   12 2
  22   11   13 2
  23   11   14 am
  24   14   15 1
  25   14   19 1
  26   15   16 1
  27   15   39 1
  28   15   40 1
  29   16   17 1
  30   16   41 1
  31   16   42 1
  32   17   18 1
  33   17   20 am
  34   18   19 1
  35   18   43 1
  36   18   44 1
  37   19   45 1
  38   19   46 1
  39   20   21 2
  40   20   22 2
  41   20   23 1
  42   23   24 ar
  43   23   28 ar
  44   24   25 ar
  45   24   30 1
  46   25   26 ar
  47   25   47 1
  48   26   27 ar
  49   26   48 1
  50   27   28 ar
  51   27   49 1
  52   28   29 1

#	End of record

