#	Name: ASD01883713
#	Creating user name:	WinNT
#	Creation time:	15. 06. 2019 19:46

#	Modifying user name:	WinNT
#	Modification time:	15. 06. 2019 19:46

#	Program:	/corina/corina34_cracker 3.40 0067  02.08.2006

@<TRIPOS>MOLECULE
ASD01883713
  41   44    0    0    0
SMALL
NO_CHARGES


@<TRIPOS>ATOM
   1 C1            -0.0169     1.3984     0.0097 C.2     
   2 C2             0.0021    -0.0041     0.0020 C.2     
   3 C3            -1.2223    -0.7047     0.0104 C.2     
   4 C4            -2.3969    -0.0475     0.0257 C.2     
   5 N5            -2.4615     1.3157     0.0336 N.pl3   
   6 C6            -1.3172     2.0717     0.0319 C.2     
   7 C7            -3.5157     2.1918     0.0483 C.2     
   8 C8            -2.9979     3.4382     0.0496 C.2     
   9 N9            -1.6639     3.3462     0.0404 N.2     
  10 C10           -4.9788     1.8308     0.0603 C.3     
  11 C11           -5.5177     1.8384    -1.3716 C.3     
  12 C12            1.2855    -0.7368    -0.0152 C.ar    
  13 C13            1.6510    -1.5330     1.0722 C.ar    
  14 C14            2.8481    -2.2153     1.0542 C.ar    
  15 C15            3.6927    -2.1122    -0.0451 C.ar    
  16 C16            3.3321    -1.3184    -1.1320 C.ar    
  17 C17            2.1328    -0.6385    -1.1220 C.ar    
  18 F18           -4.8135     0.9052    -2.1399 F       
  19 F19           -6.8760     1.5033    -1.3604 F       
  20 F20           -5.3566     3.1137    -1.9238 F       
  21 F21            4.1552    -1.2198    -2.1988 F       
  22 N22            4.9038    -2.8042    -0.0599 N.pl3   
  23 C23            5.2846    -3.6388     1.0824 C.3     
  24 C24            6.2564    -4.7915     0.8223 C.3     
  25 C25            6.7304    -3.5461     1.5742 C.3     
  26 C26            1.2014     2.1509     0.0021 C.1     
  27 N27            2.1678     2.7479    -0.0039 N.1     
  28 H28           -1.2171    -1.7847     0.0042 H       
  29 H29           -3.3154    -0.6157     0.0314 H       
  30 H30           -3.5661     4.3566     0.0592 H       
  31 H31           -5.1044     0.8372     0.4906 H       
  32 H32           -5.5275     2.5580     0.6589 H       
  33 H33            0.9960    -1.6137     1.9271 H       
  34 H34            3.1307    -2.8307     1.8955 H       
  35 H35            1.8530    -0.0232    -1.9643 H       
  36 H36            5.4938    -2.7329    -0.8265 H       
  37 H37            4.5072    -3.7950     1.8303 H       
  38 H38            6.1187    -5.7058     1.3994 H       
  39 H39            6.6125    -4.9289    -0.1987 H       
  40 H40            7.3983    -2.8642     1.0478 H       
  41 H41            6.9045    -3.6412     2.6460 H       
@<TRIPOS>BOND
   1    1    2 2
   2    1   26 1
   3    1    6 1
   4    2    3 1
   5    2   12 1
   6    3    4 2
   7    3   28 1
   8    4    5 1
   9    4   29 1
  10    5    6 1
  11    5    7 1
  12    6    9 2
  13    7    8 2
  14    7   10 1
  15    8    9 1
  16    8   30 1
  17   10   11 1
  18   10   31 1
  19   10   32 1
  20   11   18 1
  21   11   19 1
  22   11   20 1
  23   12   13 ar
  24   12   17 ar
  25   13   14 ar
  26   13   33 1
  27   14   15 ar
  28   14   34 1
  29   15   16 ar
  30   15   22 1
  31   16   17 ar
  32   16   21 1
  33   17   35 1
  34   22   23 1
  35   22   36 1
  36   23   24 1
  37   23   25 1
  38   23   37 1
  39   24   25 1
  40   24   38 1
  41   24   39 1
  42   25   40 1
  43   25   41 1
  44   26   27 3

#	End of record

