#	Name: ASD08070132
#	Creating user name:	WinNT
#	Creation time:	15. 06. 2019 21:14

#	Modifying user name:	WinNT
#	Modification time:	15. 06. 2019 21:14

#	Program:	/corina/corina34_cracker 3.40 0067  02.08.2006

@<TRIPOS>MOLECULE
ASD08070132
  38   38    0    0    0
SMALL
NO_CHARGES


@<TRIPOS>ATOM
   1 C1            -0.0171     1.4116     0.0098 C.2     
   2 C2             0.0021    -0.0041     0.0020 C.2     
   3 C3             1.1859    -0.6663    -0.0123 C.2     
   4 C4             1.2051    -2.0809    -0.0201 C.2     
   5 C5             2.4011    -4.2036    -0.0424 C.3     
   6 N6             2.3813    -2.7388    -0.0344 N.am    
   7 C7             2.2692    -4.7076    -1.4810 C.3     
   8 C8             0.8968    -4.3183    -2.0340 C.3     
   9 O9             0.1588    -2.7041    -0.0139 O.2     
  10 C10            3.7208    -4.6991     0.5525 C.3     
  11 C11            3.7962    -4.3013     2.0280 C.3     
  12 C12            0.7649    -4.8223    -3.4725 C.3     
  13 S13            1.4008     2.4514     0.0018 S.3     
  14 C14           -1.1438     2.1917     0.0188 C.2     
  15 C15           -0.8704     3.5386     0.0245 C.2     
  16 C16            0.4303     3.8545     0.0180 C.2     
  17 C17            5.1158    -4.7968     2.6230 C.3     
  18 H18           -0.9258    -0.5567     0.0075 H       
  19 H19            2.1137    -0.1136    -0.0178 H       
  20 H20            1.5697    -4.5816     0.5526 H       
  21 H21            3.2146    -2.2424    -0.0393 H       
  22 H22            3.0493    -4.2589    -2.0961 H       
  23 H23            2.3730    -5.7925    -1.4969 H       
  24 H24            0.1167    -4.7670    -1.4189 H       
  25 H25            0.7930    -3.2334    -2.0181 H       
  26 H26            3.7738    -5.7843     0.4656 H       
  27 H27            4.5542    -4.2501     0.0122 H       
  28 H28            3.7431    -3.2161     2.1150 H       
  29 H29            2.9627    -4.7503     2.5684 H       
  30 H30           -0.2129    -4.5450    -3.8665 H       
  31 H31            1.5449    -4.3736    -4.0876 H       
  32 H32            0.8686    -5.9072    -3.4884 H       
  33 H33           -2.1458     1.7886     0.0208 H       
  34 H34           -1.6484     4.2876     0.0317 H       
  35 H35            0.8146     4.8639     0.0211 H       
  36 H36            5.1688    -5.8820     2.5360 H       
  37 H37            5.9492    -4.3478     2.0826 H       
  38 H38            5.1695    -4.5134     3.6741 H       
@<TRIPOS>BOND
   1    1    2 1
   2    1   13 1
   3    1   14 2
   4    2    3 2
   5    2   18 1
   6    3    4 1
   7    3   19 1
   8    4    9 2
   9    4    6 am
  10    5    7 1
  11    5    6 1
  12    5   10 1
  13    5   20 1
  14    6   21 1
  15    7    8 1
  16    7   22 1
  17    7   23 1
  18    8   12 1
  19    8   24 1
  20    8   25 1
  21   10   11 1
  22   10   26 1
  23   10   27 1
  24   11   17 1
  25   11   28 1
  26   11   29 1
  27   12   30 1
  28   12   31 1
  29   12   32 1
  30   13   16 1
  31   14   15 1
  32   14   33 1
  33   15   16 2
  34   15   34 1
  35   16   35 1
  36   17   36 1
  37   17   37 1
  38   17   38 1

#	End of record

