#	Name: ASD04880248
#	Creating user name:	WinNT
#	Creation time:	15. 06. 2019 20:53

#	Modifying user name:	WinNT
#	Modification time:	15. 06. 2019 20:53

#	Program:	/corina/corina34_cracker 3.40 0067  02.08.2006

@<TRIPOS>MOLECULE
ASD04880248
  51   54    0    0    0
SMALL
NO_CHARGES


@<TRIPOS>ATOM
   1 C1            -0.0122     1.4645     0.0380 C.3     
   2 N2             0.0038    -0.0070     0.0397 N.am    
   3 N3             1.3266    -0.4431     0.0792 N.2     
   4 C4             2.1943     0.5092     0.1041 C.2     
   5 C5             1.4816     1.8425     0.0820 C.3     
   6 C6            -1.0835    -0.8028     0.0088 C.2     
   7 C7            -0.9242    -2.2672    -0.1123 C.ar    
   8 O8            -2.1954    -0.3161     0.0805 O.2     
   9 C9             0.3385    -2.8186    -0.3382 C.ar    
  10 C10            0.4817    -4.1860    -0.4499 C.ar    
  11 C11           -0.6224    -5.0122    -0.3391 C.ar    
  12 C12           -1.8788    -4.4728    -0.1149 C.ar    
  13 C13           -2.0344    -3.1047     0.0046 C.ar    
  14 C14            3.6564     0.3268     0.1481 C.ar    
  15 C15            4.5004     1.4396     0.1726 C.ar    
  16 C16            4.2016    -0.9600     0.1710 C.ar    
  17 C17            5.5729    -1.1251     0.2127 C.ar    
  18 C18            6.4090    -0.0103     0.2321 C.ar    
  19 C19            5.8683     1.2667     0.2142 C.ar    
  20 O20            7.7577    -0.1750     0.2740 O.3     
  21 C21            8.5557     1.0103     0.2919 C.3     
  22 O22            6.1067    -2.3758     0.2351 O.3     
  23 C23            5.1909    -3.4725     0.2137 C.3     
  24 C24            1.8649     2.6264    -1.1467 C.ar    
  25 C25            2.4424     3.8756    -1.0173 C.ar    
  26 C26            1.6440     2.0938    -2.4031 C.ar    
  27 C27            1.9956     2.8128    -3.5302 C.ar    
  28 C28            2.5676     4.0646    -3.4009 C.ar    
  29 C29            2.7940     4.5946    -2.1444 C.ar    
  30 F30           -2.9526    -5.2857    -0.0077 F       
  31 H31           -0.4768     1.8420    -0.8729 H       
  32 H32           -0.5299     1.8434     0.9192 H       
  33 H33            1.7057     2.4109     0.9846 H       
  34 H34            1.2017    -2.1755    -0.4258 H       
  35 H35            1.4583    -4.6127    -0.6247 H       
  36 H36           -0.5046    -6.0821    -0.4281 H       
  37 H37           -3.0137    -2.6844     0.1794 H       
  38 H38            4.0821     2.4352     0.1588 H       
  39 H39            3.5526    -1.8231     0.1566 H       
  40 H40            6.5199     2.1279     0.2294 H       
  41 H41            9.6105     0.7376     0.3254 H       
  42 H42            8.3597     1.5939    -0.6076 H       
  43 H43            8.3056     1.6034     1.1715 H       
  44 H44            4.5375    -3.4173     1.0843 H       
  45 H45            4.5904    -3.4267    -0.6948 H       
  46 H46            5.7464    -4.4101     0.2351 H       
  47 H47            2.6187     4.2899    -0.0357 H       
  48 H48            1.1971     1.1158    -2.5041 H       
  49 H49            1.8237     2.3964    -4.5118 H       
  50 H50            2.8426     4.6262    -4.2815 H       
  51 H51            3.2409     5.5726    -2.0434 H       
@<TRIPOS>BOND
   1    1    2 1
   2    1    5 1
   3    1   31 1
   4    1   32 1
   5    2    3 1
   6    2    6 am
   7    3    4 2
   8    4    5 1
   9    4   14 1
  10    5   24 1
  11    5   33 1
  12    6    7 1
  13    6    8 2
  14    7    9 ar
  15    7   13 ar
  16    9   10 ar
  17    9   34 1
  18   10   11 ar
  19   10   35 1
  20   11   12 ar
  21   11   36 1
  22   12   13 ar
  23   12   30 1
  24   13   37 1
  25   14   15 ar
  26   14   16 ar
  27   15   19 ar
  28   15   38 1
  29   16   17 ar
  30   16   39 1
  31   17   18 ar
  32   17   22 1
  33   18   19 ar
  34   18   20 1
  35   19   40 1
  36   20   21 1
  37   21   41 1
  38   21   42 1
  39   21   43 1
  40   22   23 1
  41   23   44 1
  42   23   45 1
  43   23   46 1
  44   24   25 ar
  45   24   26 ar
  46   25   29 ar
  47   25   47 1
  48   26   27 ar
  49   26   48 1
  50   27   28 ar
  51   27   49 1
  52   28   29 ar
  53   28   50 1
  54   29   51 1

#	End of record

