#	Name: ASD05250078
#	Creating user name:	WinNT
#	Creation time:	15. 06. 2019 20:58

#	Modifying user name:	WinNT
#	Modification time:	15. 06. 2019 20:58

#	Program:	/corina/corina34_cracker 3.40 0067  02.08.2006

@<TRIPOS>MOLECULE
ASD05250078
  46   47    0    0    0
SMALL
NO_CHARGES


@<TRIPOS>ATOM
   1 C1            -0.0167     1.3835     0.0096 C.ar    
   2 C2             0.0021    -0.0041     0.0020 C.ar    
   3 C3            -1.1874    -0.7188     0.0100 C.ar    
   4 C4            -2.3996    -0.0499     0.0256 C.ar    
   5 C5            -2.4239     1.3468     0.0334 C.ar    
   6 C6            -1.2237     2.0616     0.0306 C.ar    
   7 O7            -1.1624    -2.0776     0.0020 O.3     
   8 C8            -3.7114     2.0638     0.0500 C.2     
   9 C9            -3.7322     3.4067     0.0574 C.2     
  10 C10           -5.0189     4.1232     0.0739 C.ar    
  11 C11           -5.0426     5.5214     0.0817 C.ar    
  12 C12           -6.2474     6.1879     0.0967 C.ar    
  13 C13           -7.4406     5.4717     0.1042 C.ar    
  14 C14           -7.4210     4.0802     0.0970 C.ar    
  15 C15           -6.2200     3.4070     0.0761 C.ar    
  16 S16           -8.9800     6.3289     0.1234 S.3     
  17 C17          -10.1964     4.9832     0.1277 C.3     
  18 C18            0.1225    -2.7027    -0.0146 C.3     
  19 O19            0.7165    -2.6050     1.2814 O.3     
  20 C20            0.1560    -3.4974     2.2466 C.3     
  21 O21            1.1515     2.0778     0.0022 O.3     
  22 C22            2.3596     1.3148    -0.0134 C.3     
  23 O23            2.5637     0.7726    -1.3197 O.3     
  24 C24            3.0081     1.7297    -2.2833 C.3     
  25 H25            0.9456    -0.5295    -0.0105 H       
  26 H26           -3.3248    -0.6070     0.0315 H       
  27 H27           -1.2373     3.1415     0.0365 H       
  28 H28           -4.6382     1.5093     0.0561 H       
  29 H29           -2.8054     3.9612     0.0512 H       
  30 H30           -4.1169     6.0778     0.0762 H       
  31 H31           -6.2664     7.2677     0.1030 H       
  32 H32           -8.3490     3.5277     0.1032 H       
  33 H33           -6.2055     2.3271     0.0706 H       
  34 H34          -10.0504     4.3643     1.0131 H       
  35 H35          -11.2023     5.4027     0.1395 H       
  36 H36          -10.0673     4.3739    -0.7668 H       
  37 H37            0.0122    -3.7528    -0.2854 H       
  38 H38            0.7597    -2.2041    -0.7449 H       
  39 H39            0.2867    -4.5257     1.9096 H       
  40 H40            0.6606    -3.3616     3.2031 H       
  41 H41           -0.9069    -3.2855     2.3631 H       
  42 H42            3.1994     1.9586     0.2480 H       
  43 H43            2.2857     0.5025     0.7096 H       
  44 H44            2.2662     2.5228    -2.3766 H       
  45 H45            3.9576     2.1565    -1.9603 H       
  46 H46            3.1394     1.2398    -3.2481 H       
@<TRIPOS>BOND
   1    1    2 ar
   2    1   21 1
   3    1    6 ar
   4    2    3 ar
   5    2   25 1
   6    3    4 ar
   7    3    7 1
   8    4    5 ar
   9    4   26 1
  10    5    6 ar
  11    5    8 1
  12    6   27 1
  13    7   18 1
  14    8    9 2
  15    8   28 1
  16    9   10 1
  17    9   29 1
  18   10   11 ar
  19   10   15 ar
  20   11   12 ar
  21   11   30 1
  22   12   13 ar
  23   12   31 1
  24   13   14 ar
  25   13   16 1
  26   14   15 ar
  27   14   32 1
  28   15   33 1
  29   16   17 1
  30   17   34 1
  31   17   35 1
  32   17   36 1
  33   18   19 1
  34   18   37 1
  35   18   38 1
  36   19   20 1
  37   20   39 1
  38   20   40 1
  39   20   41 1
  40   21   22 1
  41   22   23 1
  42   22   42 1
  43   22   43 1
  44   23   24 1
  45   24   44 1
  46   24   45 1
  47   24   46 1

#	End of record

