#	Name: ASD01917582
#	Creating user name:	WinNT
#	Creation time:	15. 06. 2019 20:09

#	Modifying user name:	WinNT
#	Modification time:	15. 06. 2019 20:09

#	Program:	/corina/corina34_cracker 3.40 0067  02.08.2006

@<TRIPOS>MOLECULE
ASD01917582
  32   34    0    0    0
SMALL
NO_CHARGES


@<TRIPOS>ATOM
   1 C1            -0.0161     1.3381     0.0094 C.2     
   2 N2             0.0021    -0.0041     0.0020 N.2     
   3 C3             1.1297    -0.6674    -0.0123 C.2     
   4 C4             2.3637     0.0291    -0.0204 C.2     
   5 C5             2.3525     1.4090    -0.0129 C.2     
   6 N6             1.1522     2.0585     0.0021 N.pl3   
   7 N7             0.8205     3.4185     0.0121 N.2     
   8 C8            -0.4984     3.5338     0.0251 C.2     
   9 C9            -1.0586     2.2508     0.0186 C.2     
  10 C10           -1.2528     4.8039     0.0393 C.2     
  11 O11           -2.4674     4.7888     0.0509 O.2     
  12 O12           -0.5937     5.9788     0.0393 O.3     
  13 C13            3.6031    -0.6880    -0.0356 C.1     
  14 C14            4.6193    -1.2758    -0.0481 C.1     
  15 C15            5.8587    -1.9929    -0.0634 C.ar    
  16 C16            7.0715    -1.2986    -0.0712 C.ar    
  17 C17            8.2612    -1.9959    -0.0854 C.ar    
  18 C18            8.2561    -3.3797    -0.0919 C.ar    
  19 C19            7.0591    -4.0741    -0.0846 C.ar    
  20 C20            5.8615    -3.3903    -0.0646 C.ar    
  21 C21           -1.3994     7.1866     0.0537 C.3     
  22 H22            1.1200    -1.7473    -0.0177 H       
  23 H23            3.2780     1.9657    -0.0184 H       
  24 H24           -2.1126     2.0151     0.0214 H       
  25 H25            7.0770    -0.2186    -0.0666 H       
  26 H26            9.1993    -1.4607    -0.0919 H       
  27 H27            9.1908    -3.9205    -0.1030 H       
  28 H28            7.0627    -5.1540    -0.0901 H       
  29 H29            4.9281    -3.9335    -0.0544 H       
  30 H30           -2.0199     7.1988     0.9498 H       
  31 H31           -0.7462     8.0592     0.0521 H       
  32 H32           -2.0371     7.2086    -0.8301 H       
@<TRIPOS>BOND
   1    1    2 1
   2    1    6 1
   3    1    9 2
   4    2    3 2
   5    3    4 1
   6    3   22 1
   7    4    5 2
   8    4   13 1
   9    5    6 1
  10    5   23 1
  11    6    7 1
  12    7    8 2
  13    8    9 1
  14    8   10 1
  15    9   24 1
  16   10   11 2
  17   10   12 1
  18   12   21 1
  19   13   14 3
  20   14   15 1
  21   15   16 ar
  22   15   20 ar
  23   16   17 ar
  24   16   25 1
  25   17   18 ar
  26   17   26 1
  27   18   19 ar
  28   18   27 1
  29   19   20 ar
  30   19   28 1
  31   20   29 1
  32   21   30 1
  33   21   31 1
  34   21   32 1

#	End of record

