#	Name: ASD00111100
#	Creating user name:	WinNT
#	Creation time:	15. 06. 2019 18:30

#	Modifying user name:	WinNT
#	Modification time:	15. 06. 2019 18:30

#	Program:	/corina/corina34_cracker 3.40 0067  02.08.2006

@<TRIPOS>MOLECULE
ASD00111100
  42   43    0    0    0
SMALL
NO_CHARGES


@<TRIPOS>ATOM
   1 N1             1.2319     1.6508     0.3554 N.am    
   2 C2             0.7111     0.3276     0.0261 C.3     
   3 C3             0.6301    -0.5274     1.2955 C.3     
   4 C4             2.0043    -1.0854     1.5920 C.ar    
   5 C5             3.0070    -0.2578     2.0348 C.ar    
   6 C6             2.7461     1.2192     2.2303 C.3     
   7 C7             2.5856     1.8749     0.8530 C.3     
   8 C8             4.2635    -0.7677     2.3070 C.ar    
   9 C9             4.5093    -2.1219     2.1306 C.ar    
  10 C10            3.4949    -2.9565     1.6825 C.ar    
  11 C11            2.2419    -2.4374     1.4138 C.ar    
  12 O12            5.7416    -2.6301     2.3958 O.3     
  13 C13            6.7371    -1.7126     2.8531 C.3     
  14 C14            0.1633     0.3375     2.4681 C.3     
  15 C15           -1.3660     0.3728     2.4988 C.3     
  16 C16            0.6862    -0.2546     3.7785 C.3     
  17 Br17           3.8262    -4.8024     1.4401 Br      
  18 C18            0.4257     2.7176     0.1866 C.2     
  19 O19           -0.6721     2.5757    -0.3089 O.2     
  20 C20            0.8885     4.0868     0.6136 C.3     
  21 F21           -0.1131     5.0241     0.3393 F       
  22 F22            1.1582     4.0808     1.9863 F       
  23 F23            2.0500     4.4264    -0.0884 F       
  24 H24           -0.2838     0.4273    -0.4079 H       
  25 H25            1.3731    -0.1538    -0.6936 H       
  26 H26           -0.0717    -1.3469     1.1404 H       
  27 H27            1.8329     1.3558     2.8093 H       
  28 H28            3.5865     1.6726     2.7559 H       
  29 H29            3.3039     1.4400     0.1581 H       
  30 H30            2.7678     2.9462     0.9382 H       
  31 H31            5.0501    -0.1146     2.6549 H       
  32 H32            1.4509    -3.0848     1.0652 H       
  33 H33            6.8945    -0.9415     2.0990 H       
  34 H34            6.4051    -1.2496     3.7824 H       
  35 H35            7.6712    -2.2468     3.0269 H       
  36 H36            0.5478     1.3504     2.3482 H       
  37 H37           -1.7524    -0.6460     2.5290 H       
  38 H38           -1.6992     0.9141     3.3842 H       
  39 H39           -1.7358     0.8754     1.6051 H       
  40 H40            1.7757    -0.2798     3.7566 H       
  41 H41            0.3537     0.3616     4.6138 H       
  42 H42            0.3017    -1.2675     3.8984 H       
@<TRIPOS>BOND
   1    1    2 1
   2    1    7 1
   3    1   18 am
   4    2    3 1
   5    2   24 1
   6    2   25 1
   7    3    4 1
   8    3   14 1
   9    3   26 1
  10    4    5 ar
  11    4   11 ar
  12    5    6 1
  13    5    8 ar
  14    6    7 1
  15    6   27 1
  16    6   28 1
  17    7   29 1
  18    7   30 1
  19    8    9 ar
  20    8   31 1
  21    9   10 ar
  22    9   12 1
  23   10   11 ar
  24   10   17 1
  25   11   32 1
  26   12   13 1
  27   13   33 1
  28   13   34 1
  29   13   35 1
  30   14   15 1
  31   14   16 1
  32   14   36 1
  33   15   37 1
  34   15   38 1
  35   15   39 1
  36   16   40 1
  37   16   41 1
  38   16   42 1
  39   18   19 2
  40   18   20 1
  41   20   21 1
  42   20   22 1
  43   20   23 1

#	End of record

