#	Name: ASD04910233
#	Creating user name:	WinNT
#	Creation time:	15. 06. 2019 20:55

#	Modifying user name:	WinNT
#	Modification time:	15. 06. 2019 20:55

#	Program:	/corina/corina34_cracker 3.40 0067  02.08.2006

@<TRIPOS>MOLECULE
ASD04910233
  73   75    0    0    0
SMALL
NO_CHARGES


@<TRIPOS>ATOM
   1 C1            -4.9181    -3.0207     1.1382 C.2     
   2 C2            -4.0316    -3.9593     0.3609 C.3     
   3 C3            -2.5874    -3.8153     0.8452 C.3     
   4 O4            -4.4435    -2.3095     1.9920 O.2     
   5 O5            -6.2340    -2.9707     0.8783 O.3     
   6 C6            -0.4035    -4.7739     0.3468 C.2     
   7 C7             0.4644    -5.6928    -0.4142 C.ar    
   8 C8             1.8426    -5.7490    -0.1546 C.ar    
   9 C9             2.6096    -6.6160    -0.8847 C.ar    
  10 C10            2.0053    -7.4116    -1.8569 C.ar    
  11 N11            0.7007    -7.3386    -2.0826 N.ar    
  12 C12           -0.0741    -6.5227    -1.3986 C.ar    
  13 O13            0.0741    -4.0583     1.2060 O.2     
  14 N14           -1.7257    -4.7277     0.0896 N.am    
  15 N15            2.7782    -8.2898    -2.5974 N.pl3   
  16 C16            4.2343    -8.2984    -2.4371 C.3     
  17 C17            4.8884    -8.7573    -3.7419 C.3     
  18 C18            4.6160    -7.7263    -4.8390 C.3     
  19 C19            5.3228    -6.4143    -4.4928 C.3     
  20 C20            5.1434    -8.2524    -6.1755 C.3     
  21 C21            4.6119    -9.2441    -1.3261 C.ar    
  22 C22            5.6186    -8.9028    -0.4418 C.ar    
  23 C23            5.9669    -9.7675     0.5774 C.ar    
  24 C24            5.3047   -10.9802     0.7137 C.ar    
  25 C25            4.2940   -11.3198    -0.1755 C.ar    
  26 C26            3.9469   -10.4488    -1.1898 C.ar    
  27 N27            5.6562   -11.8601     1.7468 N.pl3   
  28 N28            6.9426   -12.3462     2.0138 N.2     
  29 C29            6.8729   -13.1389     3.0528 C.2     
  30 C30            5.5417   -13.1837     3.4812 C.2     
  31 C31            4.8145   -12.3853     2.6657 C.2     
  32 C32            5.0121   -13.9765     4.6483 C.3     
  33 F33            6.0631   -14.6739     5.2535 F       
  34 F34            4.4329   -13.1067     5.5784 F       
  35 F35            4.0488   -14.8848     4.1964 F       
  36 C36            3.5727   -12.6351    -0.0310 C.3     
  37 C37            7.0649    -9.3953     1.5402 C.3     
  38 C38           -7.0268    -2.0435     1.6658 C.3     
  39 C39           -8.4911    -2.1269     1.2302 C.3     
  40 H40           -4.3657    -4.9854     0.5144 H       
  41 H41           -4.0851    -3.7146    -0.7000 H       
  42 H42           -2.2533    -2.7892     0.6917 H       
  43 H43           -2.5339    -4.0599     1.9061 H       
  44 H44            2.2877    -5.1221     0.6038 H       
  45 H45            3.6732    -6.6829    -0.7095 H       
  46 H46           -1.1339    -6.4920    -1.6042 H       
  47 H47           -2.1066    -5.2986    -0.5958 H       
  48 H48            2.3554    -8.8995    -3.2223 H       
  49 H49            4.5787    -7.2937    -2.1917 H       
  50 H50            5.9639    -8.8554    -3.5943 H       
  51 H51            4.4729    -9.7207    -4.0373 H       
  52 H52            3.5428    -7.5518    -4.9153 H       
  53 H53            6.3939    -6.5925    -4.3981 H       
  54 H54            5.1441    -5.6857    -5.2835 H       
  55 H55            4.9337    -6.0299    -3.5499 H       
  56 H56            4.6399    -9.1871    -6.4222 H       
  57 H57            4.9494    -7.5179    -6.9571 H       
  58 H58            6.2166    -8.4269    -6.0992 H       
  59 H59            6.1334    -7.9594    -0.5483 H       
  60 H60            3.1583   -10.7108    -1.8795 H       
  61 H61            7.7005   -13.6680     3.5019 H       
  62 H62            3.7524   -12.2022     2.7350 H       
  63 H63            2.7256   -12.5127     0.6439 H       
  64 H64            3.2152   -12.9625    -1.0073 H       
  65 H65            4.2558   -13.3813     0.3747 H       
  66 H66            6.6348    -8.8854     2.4023 H       
  67 H67            7.5793   -10.2975     1.8711 H       
  68 H68            7.7747    -8.7337     1.0436 H       
  69 H69           -6.9464    -2.3026     2.7215 H       
  70 H70           -6.6590    -1.0291     1.5116 H       
  71 H71           -8.8588    -3.1414     1.3845 H       
  72 H72           -9.0862    -1.4309     1.8214 H       
  73 H73           -8.5714    -1.8679     0.1745 H       
@<TRIPOS>BOND
   1    1    2 1
   2    1    4 2
   3    1    5 1
   4    2    3 1
   5    2   40 1
   6    2   41 1
   7    3   14 1
   8    3   42 1
   9    3   43 1
  10    5   38 1
  11    6    7 1
  12    6   13 2
  13    6   14 am
  14    7    8 ar
  15    7   12 ar
  16    8    9 ar
  17    8   44 1
  18    9   10 ar
  19    9   45 1
  20   10   11 ar
  21   10   15 1
  22   11   12 ar
  23   12   46 1
  24   14   47 1
  25   15   16 1
  26   15   48 1
  27   16   17 1
  28   16   21 1
  29   16   49 1
  30   17   18 1
  31   17   50 1
  32   17   51 1
  33   18   19 1
  34   18   20 1
  35   18   52 1
  36   19   53 1
  37   19   54 1
  38   19   55 1
  39   20   56 1
  40   20   57 1
  41   20   58 1
  42   21   22 ar
  43   21   26 ar
  44   22   23 ar
  45   22   59 1
  46   23   24 ar
  47   23   37 1
  48   24   25 ar
  49   24   27 1
  50   25   26 ar
  51   25   36 1
  52   26   60 1
  53   27   28 1
  54   27   31 1
  55   28   29 2
  56   29   30 1
  57   29   61 1
  58   30   31 2
  59   30   32 1
  60   31   62 1
  61   32   33 1
  62   32   34 1
  63   32   35 1
  64   36   63 1
  65   36   64 1
  66   36   65 1
  67   37   66 1
  68   37   67 1
  69   37   68 1
  70   38   39 1
  71   38   69 1
  72   38   70 1
  73   39   71 1
  74   39   72 1
  75   39   73 1

#	End of record

