#	Name: ASD01917989
#	Creating user name:	WinNT
#	Creation time:	15. 06. 2019 20:10

#	Modifying user name:	WinNT
#	Modification time:	15. 06. 2019 20:10

#	Program:	/corina/corina34_cracker 3.40 0067  02.08.2006

@<TRIPOS>MOLECULE
ASD01917989
  40   43    0    0    0
SMALL
NO_CHARGES


@<TRIPOS>ATOM
   1 N1             4.7268    -0.5764    -2.1717 N.ar    
   2 C2             5.2109     0.1533    -3.1567 C.ar    
   3 N3             5.1522     1.4698    -3.1420 N.ar    
   4 C4             4.5989     2.1135    -2.1274 C.ar    
   5 C5             4.0754     1.3801    -1.0674 C.ar    
   6 C6             4.1579    -0.0076    -1.1216 C.ar    
   7 O7             3.4991     2.0032    -0.0061 O.3     
   8 C8             3.5511     3.3617     0.0424 C.2     
   9 N9             2.4065     5.4401    -0.0247 N.pl3   
  10 C10            2.4054     4.0776    -0.0674 C.2     
  11 C11            4.7874     3.9989     0.2107 C.2     
  12 C12            4.8352     5.3865     0.2601 C.2     
  13 C13            3.5796     6.1313     0.1328 C.2     
  14 C14            6.1154     6.0912     0.4363 C.2     
  15 N15            6.1427     7.4379     0.4818 N.am    
  16 C16            7.3369     8.1016     0.7539 C.ar    
  17 N17            8.4616     7.4112     0.8596 N.ar    
  18 C18            7.3376     9.4834     0.9065 C.ar    
  19 C19            8.5309    10.1301     1.1766 C.ar    
  20 C20            9.6867     9.3693     1.2851 C.ar    
  21 C21            9.6135     8.0004     1.1162 C.ar    
  22 O22            7.1488     5.4581     0.5408 O.2     
  23 C23            1.4053     6.3707    -0.1116 C.2     
  24 C24            1.9826     7.5871    -0.0131 C.2     
  25 N25            3.3006     7.4222     0.1399 N.2     
  26 C26            5.8504    -0.5377    -4.3334 C.3     
  27 H27            4.5546     3.1925    -2.1218 H       
  28 H28            3.7630    -0.6118    -0.3182 H       
  29 H29            1.4683     3.5555    -0.1921 H       
  30 H30            5.6932     3.4179     0.3015 H       
  31 H31            5.3308     7.9450     0.3252 H       
  32 H32            6.4194    10.0447     0.8151 H       
  33 H33            8.5622    11.2026     1.2997 H       
  34 H34           10.6342     9.8432     1.4948 H       
  35 H35           10.5110     7.4048     1.1953 H       
  36 H36            0.3520     6.1693    -0.2401 H       
  37 H37            1.4655     8.5347    -0.0454 H       
  38 H38            5.0936    -0.7399    -5.0913 H       
  39 H39            6.6243     0.1039    -4.7548 H       
  40 H40            6.2959    -1.4767    -4.0052 H       
@<TRIPOS>BOND
   1    1    2 ar
   2    1    6 ar
   3    2    3 ar
   4    2   26 1
   5    3    4 ar
   6    4    5 ar
   7    4   27 1
   8    5    6 ar
   9    5    7 1
  10    6   28 1
  11    7    8 1
  12    8   11 1
  13    8   10 2
  14    9   10 1
  15    9   23 1
  16    9   13 1
  17   10   29 1
  18   11   12 2
  19   11   30 1
  20   12   13 1
  21   12   14 1
  22   13   25 2
  23   14   15 am
  24   14   22 2
  25   15   16 1
  26   15   31 1
  27   16   18 ar
  28   16   17 ar
  29   17   21 ar
  30   18   19 ar
  31   18   32 1
  32   19   20 ar
  33   19   33 1
  34   20   21 ar
  35   20   34 1
  36   21   35 1
  37   23   24 2
  38   23   36 1
  39   24   25 1
  40   24   37 1
  41   26   38 1
  42   26   39 1
  43   26   40 1

#	End of record

