#	Name: ASD01814523
#	Creating user name:	WinNT
#	Creation time:	15. 06. 2019 19:32

#	Modifying user name:	WinNT
#	Modification time:	15. 06. 2019 19:32

#	Program:	/corina/corina34_cracker 3.40 0067  02.08.2006

@<TRIPOS>MOLECULE
ASD01814523
  56   61    0    0    0
SMALL
NO_CHARGES


@<TRIPOS>ATOM
   1 N1            -0.9431     1.9359    -1.5433 N.2     
   2 C2            -1.2139     0.7957    -2.1337 C.2     
   3 C3            -0.3564     0.2901    -3.1228 C.2     
   4 C4             0.7544     0.9898    -3.4629 C.2     
   5 N5             1.0125     2.1737    -2.8327 N.pl3   
   6 C6             0.1512     2.6356    -1.8712 C.2     
   7 N7             2.0489     3.1048    -2.9557 N.2     
   8 C8             1.8368     4.0935    -2.1106 C.2     
   9 C9             0.6658     3.8434    -1.4151 C.2     
  10 C10            2.4143     5.4023    -1.6307 C.3     
  11 N11            1.5198     5.9328    -0.5973 N.am    
  12 C12            0.4212     4.9730    -0.4480 C.3     
  13 C13            1.6773     7.0840     0.0858 C.2     
  14 O14            0.8109     7.4598     0.8519 O.2     
  15 C15            2.8998     7.8874    -0.0957 C.ar    
  16 C16            2.8138     9.2807    -0.2313 C.ar    
  17 C17            4.1507     7.2653    -0.1279 C.ar    
  18 C18            5.2897     8.0205    -0.2972 C.ar    
  19 C19            5.2011     9.3987    -0.4364 C.ar    
  20 C20            3.9686    10.0271    -0.4010 C.ar    
  21 O21            1.6048     9.8950    -0.1968 O.3     
  22 Cl22          -0.7140    -1.2185    -3.9038 Cl      
  23 F23            6.3243    10.1311    -0.6016 F       
  24 C24            1.6030    11.3240    -0.1967 C.3     
  25 C25            1.6667    11.8336    -1.6394 C.3     
  26 C26            0.3237    11.8317     0.4748 C.3     
  27 C27            0.3689    11.4410    -2.3635 C.3     
  28 C28           -0.8830    11.4393    -0.3926 C.3     
  29 C29            0.0961     9.9479    -2.0689 C.3     
  30 C30           -0.7312     9.9468    -0.7666 C.3     
  31 N31           -0.7463    12.1564    -1.6882 N.3     
  32 C32           -1.9838    12.0637    -2.4744 C.3     
  33 O33           -2.0134     9.3578    -0.9925 O.3     
  34 H34           -2.1003     0.2441    -1.8572 H       
  35 H35            1.4259     0.6158    -4.2217 H       
  36 H36            3.4064     5.2364    -1.2107 H       
  37 H37            2.4768     6.1052    -2.4614 H       
  38 H38           -0.5274     5.4579    -0.6785 H       
  39 H39            0.4027     4.5889     0.5719 H       
  40 H40            4.2241     6.1932    -0.0196 H       
  41 H41            6.2559     7.5386    -0.3215 H       
  42 H42            3.9069    11.1002    -0.5061 H       
  43 H43            2.4699    11.6877     0.3549 H       
  44 H44            1.7707    12.9186    -1.6391 H       
  45 H45            2.5192    11.3835    -2.1482 H       
  46 H46            0.2258    11.3803     1.4621 H       
  47 H47            0.3673    12.9166     0.5702 H       
  48 H48            0.4165    11.6481    -3.4326 H       
  49 H49           -1.8307    11.6451     0.1051 H       
  50 H50           -0.4751     9.4992    -2.8816 H       
  51 H51            1.0342     9.4125    -1.9228 H       
  52 H52           -0.1999     9.4108     0.0199 H       
  53 H53           -2.2602    11.0162    -2.5948 H       
  54 H54           -2.7836    12.5933    -1.9568 H       
  55 H55           -1.8258    12.5128    -3.4549 H       
  56 H56           -1.9796     8.4213    -1.2308 H       
@<TRIPOS>BOND
   1    1    2 2
   2    1    6 1
   3    2    3 1
   4    2   34 1
   5    3    4 2
   6    3   22 1
   7    4    5 1
   8    4   35 1
   9    5    7 1
  10    5    6 1
  11    6    9 2
  12    7    8 2
  13    8   10 1
  14    8    9 1
  15    9   12 1
  16   10   11 1
  17   10   36 1
  18   10   37 1
  19   11   12 1
  20   11   13 am
  21   12   38 1
  22   12   39 1
  23   13   14 2
  24   13   15 1
  25   15   17 ar
  26   15   16 ar
  27   16   20 ar
  28   16   21 1
  29   17   18 ar
  30   17   40 1
  31   18   19 ar
  32   18   41 1
  33   19   20 ar
  34   19   23 1
  35   20   42 1
  36   21   24 1
  37   24   25 1
  38   24   26 1
  39   24   43 1
  40   25   27 1
  41   25   44 1
  42   25   45 1
  43   26   28 1
  44   26   46 1
  45   26   47 1
  46   27   29 1
  47   27   31 1
  48   27   48 1
  49   28   30 1
  50   28   31 1
  51   28   49 1
  52   29   30 1
  53   29   50 1
  54   29   51 1
  55   30   33 1
  56   30   52 1
  57   31   32 1
  58   32   53 1
  59   32   54 1
  60   32   55 1
  61   33   56 1

#	End of record

