#	Name: ASD03320119
#	Creating user name:	WinNT
#	Creation time:	15. 06. 2019 20:36

#	Modifying user name:	WinNT
#	Modification time:	15. 06. 2019 20:36

#	Program:	/corina/corina34_cracker 3.40 0067  02.08.2006

@<TRIPOS>MOLECULE
ASD03320119
  44   46    0    0    0
SMALL
NO_CHARGES


@<TRIPOS>ATOM
   1 C1            -0.0181     1.4705     0.0148 C.2     
   2 C2             0.0014    -0.0045     0.0118 C.ar    
   3 C3             1.2205    -0.7002     0.0013 C.ar    
   4 C4             1.1911    -2.0690    -0.0007 C.ar    
   5 C5            -0.0388    -2.7267     0.0077 C.ar    
   6 N6            -1.1758    -2.0449     0.0171 N.ar    
   7 C7            -1.1918    -0.7281     0.0251 C.ar    
   8 O8             1.0268     2.0925     0.0082 O.2     
   9 N9            -1.1941     2.1289     0.0193 N.am    
  10 C10           -1.2149     3.5226     0.1325 C.ar    
  11 C11           -2.1829     4.2609    -0.5361 C.ar    
  12 C12           -2.2005     5.6371    -0.4222 C.ar    
  13 C13           -1.2558     6.2802     0.3565 C.ar    
  14 C14           -0.2904     5.5481     1.0231 C.ar    
  15 C15           -0.2710     4.1711     0.9183 C.ar    
  16 C16           -1.2781     7.7821     0.4785 C.3     
  17 C17           -2.1570     8.1844     1.6644 C.3     
  18 F18            0.0235     8.2528     0.6818 F       
  19 F19           -1.7968     8.3377    -0.6961 F       
  20 F20           -1.6384     7.6288     2.8389 F       
  21 F21           -2.1777     9.5787     1.7777 F       
  22 F22           -3.4587     7.7137     1.4611 F       
  23 N23           -0.0728    -4.1113     0.0057 N.3     
  24 C24           -1.4618    -4.6057     0.0156 C.3     
  25 C25           -1.6310    -5.5186    -1.2171 C.3     
  26 C26           -0.1741    -5.9429    -1.5403 C.3     
  27 C27            0.6125    -4.6565    -1.1855 C.3     
  28 O28           -2.4299    -6.6589    -0.8956 O.3     
  29 Br29           2.8026    -3.0584    -0.0152 Br      
  30 H30            2.1602    -0.1679    -0.0054 H       
  31 H31           -2.1360    -0.2040     0.0374 H       
  32 H32           -2.0262     1.6359    -0.0560 H       
  33 H33           -2.9207     3.7593    -1.1446 H       
  34 H34           -2.9528     6.2118    -0.9421 H       
  35 H35            0.4462     6.0534     1.6301 H       
  36 H36            0.4803     3.5996     1.4431 H       
  37 H37           -1.6464    -5.1750     0.9267 H       
  38 H38           -2.1546    -3.7665    -0.0466 H       
  39 H39           -2.0649    -4.9651    -2.0499 H       
  40 H40            0.1380    -6.7772    -0.9121 H       
  41 H41           -0.0643    -6.1890    -2.5964 H       
  42 H42            0.5661    -3.9440    -2.0091 H       
  43 H43            1.6488    -4.8983    -0.9496 H       
  44 H44           -2.5666    -7.2650    -1.6366 H       
@<TRIPOS>BOND
   1    1    2 1
   2    1    8 2
   3    1    9 am
   4    2    3 ar
   5    2    7 ar
   6    3    4 ar
   7    3   30 1
   8    4    5 ar
   9    4   29 1
  10    5    6 ar
  11    5   23 1
  12    6    7 ar
  13    7   31 1
  14    9   10 1
  15    9   32 1
  16   10   11 ar
  17   10   15 ar
  18   11   12 ar
  19   11   33 1
  20   12   13 ar
  21   12   34 1
  22   13   14 ar
  23   13   16 1
  24   14   15 ar
  25   14   35 1
  26   15   36 1
  27   16   17 1
  28   16   18 1
  29   16   19 1
  30   17   20 1
  31   17   21 1
  32   17   22 1
  33   23   24 1
  34   23   27 1
  35   24   25 1
  36   24   37 1
  37   24   38 1
  38   25   26 1
  39   25   28 1
  40   25   39 1
  41   26   27 1
  42   26   40 1
  43   26   41 1
  44   27   42 1
  45   27   43 1
  46   28   44 1

#	End of record

