#	Name: ASD01911960
#	Creating user name:	WinNT
#	Creation time:	15. 06. 2019 19:58

#	Modifying user name:	WinNT
#	Modification time:	15. 06. 2019 19:58

#	Program:	/corina/corina34_cracker 3.40 0067  02.08.2006

@<TRIPOS>MOLECULE
ASD01911960
  34   36    0    0    0
SMALL
NO_CHARGES


@<TRIPOS>ATOM
   1 C1            -1.3601     1.1649     1.7768 C.ar    
   2 C2            -1.1991    -0.2026     1.5783 C.ar    
   3 C3            -1.1341    -1.0279     2.6964 C.ar    
   4 N4            -1.2271    -0.4868     3.8999 N.ar    
   5 C5            -1.3792     0.8140     4.0467 C.ar    
   6 N6            -1.4451     1.6285     3.0127 N.ar    
   7 O7            -1.1080    -0.7191     0.3245 O.3     
   8 C8            -0.9468    -2.0623     0.1980 C.ar    
   9 C9             0.4677    -3.9539    -0.2346 C.ar    
  10 C10           -0.6119    -4.8025    -0.0623 C.ar    
  11 C11           -1.8643    -4.2817     0.2359 C.ar    
  12 C12           -2.0310    -2.9096     0.3660 C.ar    
  13 N13           -2.9553    -5.1387     0.4095 N.am    
  14 C14           -2.7706    -6.3674     0.9318 C.2     
  15 C15           -3.9069    -7.3138     1.0185 C.ar    
  16 O16           -1.6719    -6.6989     1.3316 O.2     
  17 N17           -5.1046    -6.9460     0.5801 N.ar    
  18 C18           -6.1398    -7.7555     0.6381 C.ar    
  19 C19           -6.0169    -9.0314     1.1629 C.ar    
  20 C20           -4.7830    -9.4574     1.6328 C.ar    
  21 C21           -3.7082    -8.5842     1.5540 C.ar    
  22 C22            0.3023    -2.5861    -0.1051 C.ar    
  23 Br23          -4.5698   -11.1908     2.3579 Br      
  24 F24            1.6856    -4.4619    -0.5243 F       
  25 H25           -1.4104     1.8386     0.9342 H       
  26 H26           -1.0099    -2.0948     2.5834 H       
  27 H27           -1.4523     1.2243     5.0431 H       
  28 H28           -0.4813    -5.8697    -0.1641 H       
  29 H29           -3.0041    -2.5028     0.5981 H       
  30 H30           -3.8451    -4.8490     0.1541 H       
  31 H31           -7.0990    -7.4205     0.2718 H       
  32 H32           -6.8733    -9.6881     1.2063 H       
  33 H33           -2.7331    -8.8821     1.9101 H       
  34 H34            1.1460    -1.9255    -0.2403 H       
@<TRIPOS>BOND
   1    1    2 ar
   2    1    6 ar
   3    1   25 1
   4    2    3 ar
   5    2    7 1
   6    3    4 ar
   7    3   26 1
   8    4    5 ar
   9    5    6 ar
  10    5   27 1
  11    7    8 1
  12    8   22 ar
  13    8   12 ar
  14    9   10 ar
  15    9   22 ar
  16    9   24 1
  17   10   11 ar
  18   10   28 1
  19   11   12 ar
  20   11   13 1
  21   12   29 1
  22   13   14 am
  23   13   30 1
  24   14   15 1
  25   14   16 2
  26   15   17 ar
  27   15   21 ar
  28   17   18 ar
  29   18   19 ar
  30   18   31 1
  31   19   20 ar
  32   19   32 1
  33   20   21 ar
  34   20   23 1
  35   21   33 1
  36   22   34 1

#	End of record

