#	Name: ASD03240758
#	Creating user name:	WinNT
#	Creation time:	15. 06. 2019 20:35

#	Modifying user name:	WinNT
#	Modification time:	15. 06. 2019 20:35

#	Program:	/corina/corina34_cracker 3.40 0067  02.08.2006

@<TRIPOS>MOLECULE
ASD03240758
  79   84    0    0    0
SMALL
NO_CHARGES


@<TRIPOS>ATOM
   1 C1             4.6739    -2.0928     0.7664 C.2     
   2 N2             5.3439    -3.2512     0.6325 N.2     
   3 C3             6.6267    -3.2854     0.3787 C.2     
   4 C4             7.3561    -2.0271     0.2360 C.ar    
   5 C5             6.6472    -0.8149     0.3777 C.ar    
   6 N6             5.2932    -0.8784     0.6454 N.pl3   
   7 C7             8.7280    -1.9988    -0.0348 C.ar    
   8 C8             9.3429    -0.7565    -0.1544 C.ar    
   9 C9             8.5692     0.4100    -0.0000 C.ar    
  10 N10            7.2709     0.3436     0.2553 N.ar    
  11 N11            4.3274     0.1169     0.8376 N.2     
  12 C12            3.1700    -0.4558     1.0659 C.2     
  13 C13            3.3369    -1.8347     1.0370 C.2     
  14 C14           10.7946    -0.6619    -0.4404 C.ar    
  15 C15           11.7065    -1.3919     0.3204 C.ar    
  16 C16           13.0566    -1.3003     0.0493 C.ar    
  17 C17           13.5054    -0.4858    -0.9747 C.ar    
  18 C18           12.6051     0.2412    -1.7327 C.ar    
  19 C19           11.2523     0.1528    -1.4748 C.ar    
  20 C20            1.8717     0.2644     1.3243 C.3     
  21 C21            9.2184     1.7349    -0.1263 C.ar    
  22 C22            8.5241     2.8038    -0.6931 C.ar    
  23 C23            9.1345     4.0359    -0.8080 C.ar    
  24 C24           10.4324     4.2123    -0.3626 C.ar    
  25 C25           11.1262     3.1561     0.2004 C.ar    
  26 C26           10.5248     1.9206     0.3261 C.ar    
  27 C27           11.0933     5.5605    -0.4916 C.3     
  28 N28           10.8306     6.3523     0.7175 N.3     
  29 C29           11.6474     7.5725     0.7352 C.3     
  30 C30           11.4572     8.2960     2.0703 C.3     
  31 C31            9.9775     8.6473     2.2485 C.3     
  32 C32            9.1444     7.3646     2.1778 C.3     
  33 C33            9.4017     6.6681     0.8396 C.3     
  34 C34            9.7743     9.3066     3.5883 C.2     
  35 N35            8.6740    10.0518     3.8127 N.am    
  36 O36           10.6009     9.1665     4.4647 O.2     
  37 C37            6.3258     9.8700     3.1535 C.3     
  38 C38            7.7277    10.3072     2.7239 C.3     
  39 C39            7.7179    11.8017     2.3966 C.3     
  40 C40            8.4242    10.6066     5.1454 C.3     
  41 C41            9.1556    11.9431     5.2867 C.3     
  42 H42            7.1396    -4.2303     0.2765 H       
  43 H43            9.2924    -2.9126    -0.1472 H       
  44 H44            2.5648    -2.5732     1.1943 H       
  45 H45           11.3572    -2.0276     1.1205 H       
  46 H46           13.7640    -1.8653     0.6380 H       
  47 H47           14.5629    -0.4169    -1.1831 H       
  48 H48           12.9613     0.8758    -2.5307 H       
  49 H49           10.5499     0.7174    -2.0700 H       
  50 H50            1.3588     0.4395     0.3786 H       
  51 H51            1.2412    -0.3444     1.9723 H       
  52 H52            2.0761     1.2191     1.8090 H       
  53 H53            7.5110     2.6672    -1.0414 H       
  54 H54            8.5981     4.8642    -1.2469 H       
  55 H55           12.1392     3.3000     0.5463 H       
  56 H56           11.0659     1.0980     0.7698 H       
  57 H57           12.1684     5.4280    -0.6127 H       
  58 H58           10.6911     6.0806    -1.3610 H       
  59 H59           12.6977     7.3083     0.6117 H       
  60 H60           11.3396     8.2275    -0.0799 H       
  61 H61           11.7777     7.6467     2.8850 H       
  62 H62           12.0515     9.2097     2.0770 H       
  63 H63            9.6666     9.3277     1.4558 H       
  64 H64            9.4286     6.7006     2.9942 H       
  65 H65            8.0863     7.6128     2.2614 H       
  66 H66            9.1044     7.3273     0.0240 H       
  67 H67            8.8208     5.7470     0.7920 H       
  68 H68            6.0242    10.4334     4.0366 H       
  69 H69            5.6217    10.0600     2.3434 H       
  70 H70            6.3327     8.8053     3.3867 H       
  71 H71            8.0292     9.7438     1.8408 H       
  72 H72            8.7166    12.1131     2.0905 H       
  73 H73            7.0138    11.9917     1.5865 H       
  74 H74            7.4163    12.3651     3.2796 H       
  75 H75            7.3538    10.7623     5.2794 H       
  76 H76            8.7879     9.9116     5.9023 H       
  77 H77           10.2161    11.8007     5.0789 H       
  78 H78            8.7401    12.6612     4.5798 H       
  79 H79            9.0317    12.3194     6.3022 H       
@<TRIPOS>BOND
   1    1    2 1
   2    1    6 1
   3    1   13 2
   4    2    3 2
   5    3    4 1
   6    3   42 1
   7    4    5 ar
   8    4    7 ar
   9    5    6 1
  10    5   10 ar
  11    6   11 1
  12    7    8 ar
  13    7   43 1
  14    8    9 ar
  15    8   14 1
  16    9   10 ar
  17    9   21 1
  18   11   12 2
  19   12   13 1
  20   12   20 1
  21   13   44 1
  22   14   15 ar
  23   14   19 ar
  24   15   16 ar
  25   15   45 1
  26   16   17 ar
  27   16   46 1
  28   17   18 ar
  29   17   47 1
  30   18   19 ar
  31   18   48 1
  32   19   49 1
  33   20   50 1
  34   20   51 1
  35   20   52 1
  36   21   22 ar
  37   21   26 ar
  38   22   23 ar
  39   22   53 1
  40   23   24 ar
  41   23   54 1
  42   24   25 ar
  43   24   27 1
  44   25   26 ar
  45   25   55 1
  46   26   56 1
  47   27   28 1
  48   27   57 1
  49   27   58 1
  50   28   29 1
  51   28   33 1
  52   29   30 1
  53   29   59 1
  54   29   60 1
  55   30   31 1
  56   30   61 1
  57   30   62 1
  58   31   32 1
  59   31   34 1
  60   31   63 1
  61   32   33 1
  62   32   64 1
  63   32   65 1
  64   33   66 1
  65   33   67 1
  66   34   35 am
  67   34   36 2
  68   35   38 1
  69   35   40 1
  70   37   38 1
  71   37   68 1
  72   37   69 1
  73   37   70 1
  74   38   39 1
  75   38   71 1
  76   39   72 1
  77   39   73 1
  78   39   74 1
  79   40   41 1
  80   40   75 1
  81   40   76 1
  82   41   77 1
  83   41   78 1
  84   41   79 1

#	End of record

