#	Name: ASD01917897
#	Creating user name:	WinNT
#	Creation time:	15. 06. 2019 20:10

#	Modifying user name:	WinNT
#	Modification time:	15. 06. 2019 20:10

#	Program:	/corina/corina34_cracker 3.40 0067  02.08.2006

@<TRIPOS>MOLECULE
ASD01917897
  41   44    0    0    0
SMALL
NO_CHARGES


@<TRIPOS>ATOM
   1 C1            -0.0181     1.3264     0.0109 C.2     
   2 C2            -0.0109    -0.0198     0.0189 C.2     
   3 C3            -1.2824    -0.8543     0.0303 C.3     
   4 C4            -2.4489     0.0157     0.5044 C.3     
   5 N5            -2.4139     1.2998    -0.2116 N.am    
   6 C6            -1.2610     2.1865     0.0240 C.3     
   7 C7            -3.4039     1.6536    -1.0549 C.2     
   8 O8            -4.2902     0.8645    -1.3166 O.2     
   9 S9             1.6442     1.8983    -0.0096 S.3     
  10 C10            2.2071     0.2844    -0.0009 C.2     
  11 N11            1.2125    -0.5315     0.0143 N.2     
  12 C12            3.6578    -0.1235    -0.0101 C.3     
  13 O13            4.1047    -0.2633    -1.3602 O.3     
  14 C14            5.4001    -0.6295    -1.5465 C.ar    
  15 C15            5.9007    -0.7836    -2.8312 C.ar    
  16 C16            7.2179    -1.1560    -3.0179 C.ar    
  17 C17            8.0371    -1.3749    -1.9258 C.ar    
  18 C18            7.5405    -1.2224    -0.6444 C.ar    
  19 C19            6.2257    -0.8442    -0.4525 C.ar    
  20 C20           -3.4117     3.0045    -1.6628 C.ar    
  21 C21           -3.8810     3.2093    -2.9629 C.ar    
  22 N22           -3.8745     4.4249    -3.4752 N.ar    
  23 N23           -3.4492     5.4429    -2.8208 N.ar    
  24 C24           -2.9871     5.3512    -1.5886 C.ar    
  25 C25           -2.9541     4.1217    -0.9518 C.ar    
  26 H26           -1.4866    -1.2209    -0.9757 H       
  27 H27           -1.1582    -1.6984     0.7086 H       
  28 H28           -3.3906    -0.4922     0.2960 H       
  29 H29           -2.3589     0.1934     1.5761 H       
  30 H30           -1.3631     2.6775     0.9918 H       
  31 H31           -1.2008     2.9340    -0.7670 H       
  32 H32            4.2529     0.6390     0.4925 H       
  33 H33            3.7711    -1.0745     0.5104 H       
  34 H34            5.2611    -0.6131    -3.6845 H       
  35 H35            7.6080    -1.2764    -4.0177 H       
  36 H36            9.0666    -1.6659    -2.0738 H       
  37 H37            8.1822    -1.3947     0.2070 H       
  38 H38            5.8383    -0.7251     0.5486 H       
  39 H39           -4.2468     2.3766    -3.5454 H       
  40 H40           -2.6387     6.2351    -1.0751 H       
  41 H41           -2.5796     4.0259     0.0567 H       
@<TRIPOS>BOND
   1    1    2 2
   2    1    9 1
   3    1    6 1
   4    2    3 1
   5    2   11 1
   6    3    4 1
   7    3   26 1
   8    3   27 1
   9    4    5 1
  10    4   28 1
  11    4   29 1
  12    5    6 1
  13    5    7 am
  14    6   30 1
  15    6   31 1
  16    7    8 2
  17    7   20 1
  18    9   10 1
  19   10   11 2
  20   10   12 1
  21   12   13 1
  22   12   32 1
  23   12   33 1
  24   13   14 1
  25   14   15 ar
  26   14   19 ar
  27   15   16 ar
  28   15   34 1
  29   16   17 ar
  30   16   35 1
  31   17   18 ar
  32   17   36 1
  33   18   19 ar
  34   18   37 1
  35   19   38 1
  36   20   21 ar
  37   20   25 ar
  38   21   22 ar
  39   21   39 1
  40   22   23 ar
  41   23   24 ar
  42   24   25 ar
  43   24   40 1
  44   25   41 1

#	End of record

