#	Name: ASD01913088
#	Creating user name:	WinNT
#	Creation time:	15. 06. 2019 20:00

#	Modifying user name:	WinNT
#	Modification time:	15. 06. 2019 20:00

#	Program:	/corina/corina34_cracker 3.40 0067  02.08.2006

@<TRIPOS>MOLECULE
ASD01913088
  28   29    0    0    0
SMALL
NO_CHARGES


@<TRIPOS>ATOM
   1 N1            -0.0169     1.3965     0.0097 N.2     
   2 N2             0.0021    -0.0041     0.0020 N.pl3   
   3 C3             1.2284     1.8226     0.0001 C.2     
   4 C4             2.0722     0.6950    -0.0140 C.2     
   5 C5             1.2909    -0.4070    -0.0125 C.2     
   6 C6             1.7727    -1.8348    -0.0243 C.3     
   7 C7             1.6660     3.2408     0.0031 C.ar    
   8 C8             0.7204     4.2636     0.0177 C.ar    
   9 C9             1.1317     5.5809     0.0209 C.ar    
  10 C10            2.4827     5.8868     0.0092 C.ar    
  11 C11            3.4266     4.8725    -0.0053 C.ar    
  12 C12            3.0241     3.5529    -0.0028 C.ar    
  13 C13            2.0682    -2.2852     1.4078 C.3     
  14 F14            2.8811     7.1777     0.0115 F       
  15 C15            0.1096     6.6883     0.0367 C.3     
  16 H16           -0.7755    -0.5839     0.0063 H       
  17 H17            3.1521     0.7089    -0.0249 H       
  18 H18            1.0024    -2.4747    -0.4548 H       
  19 H19            2.6810    -1.9068    -0.6225 H       
  20 H20           -0.3331     4.0260     0.0261 H       
  21 H21            4.4789     5.1153    -0.0147 H       
  22 H22            3.7605     2.7629    -0.0142 H       
  23 H23            2.4167    -3.3180     1.3992 H       
  24 H24            2.8385    -1.6454     1.8383 H       
  25 H25            1.1599    -2.2132     2.0060 H       
  26 H26           -0.1270     6.9497     1.0681 H       
  27 H27            0.5123     7.5617    -0.4763 H       
  28 H28           -0.7956     6.3544    -0.4704 H       
@<TRIPOS>BOND
   1    1    2 1
   2    1    3 2
   3    2    5 1
   4    2   16 1
   5    3    4 1
   6    3    7 1
   7    4    5 2
   8    4   17 1
   9    5    6 1
  10    6   13 1
  11    6   18 1
  12    6   19 1
  13    7    8 ar
  14    7   12 ar
  15    8    9 ar
  16    8   20 1
  17    9   10 ar
  18    9   15 1
  19   10   11 ar
  20   10   14 1
  21   11   12 ar
  22   11   21 1
  23   12   22 1
  24   13   23 1
  25   13   24 1
  26   13   25 1
  27   15   26 1
  28   15   27 1
  29   15   28 1

#	End of record

