#	Name: ASD01810097
#	Creating user name:	WinNT
#	Creation time:	15. 06. 2019 19:23

#	Modifying user name:	WinNT
#	Modification time:	15. 06. 2019 19:23

#	Program:	/corina/corina34_cracker 3.40 0067  02.08.2006

@<TRIPOS>MOLECULE
ASD01810097
  59   63    0    0    0
SMALL
NO_CHARGES


@<TRIPOS>ATOM
   1 C1            -0.0167     1.3798     0.0096 C.ar    
   2 C2             0.0021    -0.0041     0.0020 C.ar    
   3 C3             1.2044    -0.6844    -0.0132 C.ar    
   4 C4             2.3969     0.0223    -0.0208 C.ar    
   5 C5             2.3780     1.4188    -0.0131 C.ar    
   6 C6             1.1667     2.0926     0.0022 C.ar    
   7 N7             3.7356    -0.3620    -0.0357 N.am    
   8 C8             4.4959     0.7492    -0.0370 C.2     
   9 N9             3.7058     1.8393    -0.0236 N.am    
  10 O10            5.7126     0.7658    -0.0490 O.2     
  11 C11            4.1645     3.2306    -0.0215 C.3     
  12 C12            5.0222     3.4847     1.2212 C.3     
  13 C13            5.5484     4.9214     1.1869 C.3     
  14 N14            6.3456     5.1231    -0.0298 N.3     
  15 C15            5.5309     4.9308    -1.2363 C.3     
  16 C16            5.0043     3.4944    -1.2743 C.3     
  17 C17            6.9811     6.4475    -0.0292 C.3     
  18 C18            7.8995     6.5729    -1.2470 C.3     
  19 C19            8.5868     7.9418    -1.2244 C.3     
  20 N20            7.5575     8.9863    -1.1348 N.am    
  21 C21            6.5665     8.9107    -0.0527 C.3     
  22 C22            5.9018     7.5309    -0.0884 C.3     
  23 S23            7.5153    10.2257    -2.2323 S.o2    
  24 O24            8.8308    10.3420    -2.7569 O.2     
  25 C25            6.4912     9.7049    -3.5681 C.ar    
  26 C26            5.1328     9.9592    -3.5375 C.ar    
  27 C27            4.3293     9.5505    -4.5855 C.ar    
  28 C28            4.8843     8.8880    -5.6643 C.ar    
  29 C29            6.2428     8.6345    -5.6954 C.ar    
  30 C30            7.0470     9.0470    -4.6494 C.ar    
  31 O31            6.8334    11.2995    -1.5989 O.2     
  32 H32           -0.9605     1.9046     0.0170 H       
  33 H33           -0.9271    -0.5545     0.0083 H       
  34 H34            1.2151    -1.7643    -0.0187 H       
  35 H35            1.1480     3.1724     0.0078 H       
  36 H36            4.0642    -1.2746    -0.0433 H       
  37 H37            3.3029     3.8982    -0.0121 H       
  38 H38            4.4177     3.3399     2.1165 H       
  39 H39            5.8619     2.7898     1.2321 H       
  40 H40            4.7083     5.6159     1.1899 H       
  41 H41            6.1712     5.1011     2.0631 H       
  42 H42            4.6910     5.6253    -1.2219 H       
  43 H43            6.1411     5.1174    -2.1201 H       
  44 H44            5.8437     2.7997    -1.3027 H       
  45 H45            4.3869     3.3566    -2.1620 H       
  46 H46            7.5673     6.5686     0.8817 H       
  47 H47            8.6537     5.7865    -1.2163 H       
  48 H48            7.3099     6.4768    -2.1587 H       
  49 H49            9.2475     8.0047    -0.3597 H       
  50 H50            9.1646     8.0756    -2.1389 H       
  51 H51            7.0625     9.0526     0.9075 H       
  52 H52            5.8113     9.6838    -0.1940 H       
  53 H53            5.3310     7.4258    -1.0110 H       
  54 H54            5.2342     7.4265     0.7669 H       
  55 H55            4.6992    10.4768    -2.6946 H       
  56 H56            3.2679     9.7486    -4.5612 H       
  57 H57            4.2564     8.5681    -6.4828 H       
  58 H58            6.6764     8.1165    -6.5381 H       
  59 H59            8.1084     8.8489    -4.6736 H       
@<TRIPOS>BOND
   1    1    2 ar
   2    1    6 ar
   3    1   32 1
   4    2    3 ar
   5    2   33 1
   6    3    4 ar
   7    3   34 1
   8    4    5 ar
   9    4    7 1
  10    5    6 ar
  11    5    9 1
  12    6   35 1
  13    7    8 am
  14    7   36 1
  15    8    9 am
  16    8   10 2
  17    9   11 1
  18   11   12 1
  19   11   16 1
  20   11   37 1
  21   12   13 1
  22   12   38 1
  23   12   39 1
  24   13   14 1
  25   13   40 1
  26   13   41 1
  27   14   15 1
  28   14   17 1
  29   15   16 1
  30   15   42 1
  31   15   43 1
  32   16   44 1
  33   16   45 1
  34   17   18 1
  35   17   22 1
  36   17   46 1
  37   18   19 1
  38   18   47 1
  39   18   48 1
  40   19   20 1
  41   19   49 1
  42   19   50 1
  43   20   21 1
  44   20   23 am
  45   21   22 1
  46   21   51 1
  47   21   52 1
  48   22   53 1
  49   22   54 1
  50   23   24 2
  51   23   25 1
  52   23   31 2
  53   25   26 ar
  54   25   30 ar
  55   26   27 ar
  56   26   55 1
  57   27   28 ar
  58   27   56 1
  59   28   29 ar
  60   28   57 1
  61   29   30 ar
  62   29   58 1
  63   30   59 1

#	End of record

