#	Name: ASD00960074
#	Creating user name:	WinNT
#	Creation time:	15. 06. 2019 18:53

#	Modifying user name:	WinNT
#	Modification time:	15. 06. 2019 18:53

#	Program:	/corina/corina34_cracker 3.40 0067  02.08.2006

@<TRIPOS>MOLECULE
ASD00960074
  34   36    0    0    0
SMALL
NO_CHARGES


@<TRIPOS>ATOM
   1 F1             1.2846     2.0485     0.0008 F       
   2 C2            -0.0189     1.5406     0.0105 C.3     
   3 C3             0.0021    -0.0041     0.0020 C.3     
   4 O4            -1.0943    -0.3927     0.8581 O.3     
   5 C5            -1.0543     0.5287     1.9695 C.3     
   6 C6            -2.4127     0.5753     2.6719 C.3     
   7 C7            -0.2140    -0.5240    -1.3959 C.2     
   8 C8             0.7551    -0.6882    -2.3280 C.2     
   9 N9            -1.4058    -0.9049    -1.9128 N.pl3   
  10 C10           -1.2114    -1.3223    -3.2130 C.2     
  11 C11            0.1493    -1.1932    -3.4961 C.2     
  12 N12           -2.7066    -0.9441    -1.3900 N.2     
  13 C13           -3.6953    -1.3677    -2.1295 C.2     
  14 N14           -3.5200    -1.7734    -3.3851 N.2     
  15 C15           -2.3249    -1.7672    -3.9544 C.2     
  16 O16           -2.6741    -0.6873     3.2879 O.3     
  17 N17           -2.1703    -2.1935    -5.2590 N.pl3   
  18 C18            0.8016    -1.5118    -4.7304 C.1     
  19 C19            1.3364    -1.7731    -5.7424 C.1     
  20 C20           -0.7298     1.8991     1.3346 C.3     
  21 O21            0.1409     2.6504     2.1829 O.3     
  22 *22           -0.0245     4.0470     2.0819 Du      
  23 H23           -0.5818     1.9196    -0.8424 H       
  24 H24            0.9460    -0.3730     0.4033 H       
  25 H25           -0.2723     0.2415     2.6725 H       
  26 H26           -2.4017     1.3555     3.4330 H       
  27 H27           -3.1922     0.7915     1.9413 H       
  28 H28            1.8050    -0.4704    -2.1992 H       
  29 H29           -4.6894    -1.3901    -1.7081 H       
  30 H30           -3.5208    -0.7303     3.7529 H       
  31 H31           -2.9401    -2.4998    -5.7635 H       
  32 H32           -1.2920    -2.1867    -5.6706 H       
  33 H33            1.8147    -2.0067    -6.6474 H       
  34 H34           -1.6462     2.4554     1.1376 H       
@<TRIPOS>BOND
   1    1    2 1
   2    2    3 1
   3    2   20 1
   4    2   23 1
   5    3    4 1
   6    3    7 1
   7    3   24 1
   8    4    5 1
   9    5   20 1
  10    5    6 1
  11    5   25 1
  12    6   16 1
  13    6   26 1
  14    6   27 1
  15    7    8 2
  16    7    9 1
  17    8   11 1
  18    8   28 1
  19    9   10 1
  20    9   12 1
  21   10   11 2
  22   10   15 1
  23   11   18 1
  24   12   13 2
  25   13   14 1
  26   13   29 1
  27   14   15 2
  28   15   17 1
  29   16   30 1
  30   17   31 1
  31   17   32 1
  32   18   19 3
  33   19   33 1
  34   20   21 1
  35   20   34 1
  36   21   22 1

#	End of record

