#	Name: ASD02038675
#	Creating user name:	WinNT
#	Creation time:	15. 06. 2019 20:17

#	Modifying user name:	WinNT
#	Modification time:	15. 06. 2019 20:17

#	Program:	/corina/corina34_cracker 3.40 0067  02.08.2006

@<TRIPOS>MOLECULE
ASD02038675
  47   47    0    0    0
SMALL
NO_CHARGES


@<TRIPOS>ATOM
   1 C1            -0.0167     1.3772     0.0096 C.ar    
   2 C2             0.0021    -0.0041     0.0020 C.ar    
   3 C3             1.2080    -0.6802    -0.0131 C.ar    
   4 C4             1.2255    -2.1871    -0.0219 C.3     
   5 C5             1.2180    -2.6888    -1.4673 C.3     
   6 C6             1.2355    -4.1957    -1.4760 C.2     
   7 N7             1.2324    -4.8628    -2.6471 N.am    
   8 N8             1.2486    -6.2637    -2.6552 N.am    
   9 C9             1.2455    -6.9309    -3.8263 C.2     
  10 C10            1.1975    -6.7208    -8.7288 C.ar    
  11 C11            1.2010    -5.9748    -7.4194 C.3     
  12 C12            1.2234    -6.9756    -6.2624 C.3     
  13 C13            1.1759     2.0860     0.0020 C.ar    
  14 C14            2.3846     1.4052    -0.0132 C.ar    
  15 C15            2.3980     0.0239    -0.0207 C.ar    
  16 O16            1.1601     3.4449     0.0090 O.3     
  17 N17            1.2268    -6.2504    -4.9895 N.am    
  18 C18           -0.0011    -7.0769    -9.3183 C.ar    
  19 C19           -0.0043    -7.7612   -10.5193 C.ar    
  20 C20            1.1911    -8.0891   -11.1312 C.ar    
  21 C21            2.3897    -7.7322   -10.5422 C.ar    
  22 C22            2.3928    -7.0440    -9.3433 C.ar    
  23 O23            1.2523    -4.8080    -0.4293 O.2     
  24 S24            1.2654    -8.6427    -3.8362 S.2     
  25 H25           -0.9589     1.9049     0.0170 H       
  26 H26           -0.9260    -0.5563     0.0083 H       
  27 H27            2.1244    -2.5429     0.4815 H       
  28 H28            0.3447    -2.5637     0.4981 H       
  29 H29            0.3190    -2.3329    -1.9707 H       
  30 H30            2.0988    -2.3122    -1.9872 H       
  31 H31            1.2189    -4.3731    -3.4842 H       
  32 H32            1.2621    -6.7535    -1.8180 H       
  33 H33            2.0841    -5.3382    -7.3663 H       
  34 H34            0.3044    -5.3589    -7.3498 H       
  35 H35            0.3402    -7.6123    -6.3155 H       
  36 H36            2.1200    -7.5915    -6.3320 H       
  37 H37            3.3144     1.9547    -0.0194 H       
  38 H38            3.3387    -0.5065    -0.0325 H       
  39 H39            1.1638     3.8337     0.8944 H       
  40 H40            1.2155    -5.2805    -4.9838 H       
  41 H41           -0.9351    -6.8208    -8.8402 H       
  42 H42           -0.9407    -8.0401   -10.9795 H       
  43 H43            1.1887    -8.6243   -12.0692 H       
  44 H44            3.3237    -7.9886   -11.0201 H       
  45 H45            3.3293    -6.7652    -8.8832 H       
  46 Cl46           8.3387     8.8337     5.8944 Cl      
  47 H47            8.3387    10.2037     5.8944 H       
@<TRIPOS>BOND
   1    1    2 ar
   2    1   13 ar
   3    1   25 1
   4    2    3 ar
   5    2   26 1
   6    3    4 1
   7    3   15 ar
   8    4    5 1
   9    4   27 1
  10    4   28 1
  11    5    6 1
  12    5   29 1
  13    5   30 1
  14    6    7 am
  15    6   23 2
  16    7    8 1
  17    7   31 1
  18    8    9 am
  19    8   32 1
  20    9   17 am
  21    9   24 2
  22   10   11 1
  23   10   18 ar
  24   10   22 ar
  25   11   12 1
  26   11   33 1
  27   11   34 1
  28   12   17 1
  29   12   35 1
  30   12   36 1
  31   13   14 ar
  32   13   16 1
  33   14   15 ar
  34   14   37 1
  35   15   38 1
  36   16   39 1
  37   17   40 1
  38   18   19 ar
  39   18   41 1
  40   19   20 ar
  41   19   42 1
  42   20   21 ar
  43   20   43 1
  44   21   22 ar
  45   21   44 1
  46   22   45 1
  47   46   47 1

#	End of record

