#	Name: ASD01941031
#	Creating user name:	WinNT
#	Creation time:	15. 06. 2019 20:13

#	Modifying user name:	WinNT
#	Modification time:	15. 06. 2019 20:13

#	Program:	/corina/corina34_cracker 3.40 0067  02.08.2006

@<TRIPOS>MOLECULE
ASD01941031
  53   57    0    0    0
SMALL
NO_CHARGES


@<TRIPOS>ATOM
   1 N1             0.5897     0.9877     0.2006 N.am    
   2 C2             0.4796    -0.3491     0.2361 C.2     
   3 N3            -0.6837    -0.9925     0.0323 N.am    
   4 C4            -1.8399    -0.2828    -0.2282 C.2     
   5 C5            -1.7755     1.1356    -0.2757 C.2     
   6 C6            -0.4798     1.7773    -0.0399 C.2     
   7 C7            -3.0520    -0.9047    -0.4435 C.2     
   8 C8            -4.1835    -0.1242    -0.7025 C.2     
   9 N9            -4.1079     1.2175    -0.7446 N.am    
  10 C10           -2.9292     1.8678    -0.5362 C.2     
  11 C11           -0.7231    -2.3916     0.0840 C.ar    
  12 C12           -0.2729    -3.1407    -0.9950 C.ar    
  13 C13           -0.3126    -4.5202    -0.9408 C.ar    
  14 C14           -0.8001    -5.1555     0.1866 C.ar    
  15 C15           -1.2496    -4.4123     1.2626 C.ar    
  16 C16           -1.2071    -3.0326     1.2167 C.ar    
  17 O17           -5.2581    -0.6707    -0.8941 O.2     
  18 N18           -2.8801     3.2339    -0.5846 N.pl3   
  19 C19           -2.5411     3.8797    -1.7781 C.ar    
  20 C20           -2.5909     5.2654    -1.8579 C.ar    
  21 C21           -2.2557     5.9003    -3.0376 C.ar    
  22 C22           -1.8710     5.1573    -4.1396 C.ar    
  23 C23           -1.8205     3.7767    -4.0630 C.ar    
  24 C24           -2.1486     3.1367    -2.8840 C.ar    
  25 O25            1.4758    -1.0081     0.4621 O.2     
  26 C26            1.8976     1.6051     0.4338 C.3     
  27 O27           -0.3681     2.9887    -0.0690 O.2     
  28 C28            3.0091     1.3076    -0.5747 C.3     
  29 C29            2.3519     2.6890    -0.5458 C.3     
  30 C30           -5.3181     1.9960    -1.0197 C.3     
  31 Br31          -1.4140     6.0302    -5.7536 Br      
  32 C32           -3.1559    -2.4075    -0.4008 C.3     
  33 H33            0.1076    -2.6451    -1.8760 H       
  34 H34            0.0370    -5.1033    -1.7799 H       
  35 H35           -0.8302    -6.2343     0.2266 H       
  36 H36           -1.6304    -4.9114     2.1414 H       
  37 H37           -1.5580    -2.4527     2.0576 H       
  38 H38           -3.0803     3.7549     0.2087 H       
  39 H39           -2.8919     5.8459    -0.9983 H       
  40 H40           -2.2943     6.9778    -3.1002 H       
  41 H41           -1.5198     3.1992    -4.9247 H       
  42 H42           -2.1090     2.0591    -2.8248 H       
  43 H43            2.1840     1.7191     1.4793 H       
  44 H44            4.0267     1.2263    -0.1927 H       
  45 H45            2.7672     0.6526    -1.4117 H       
  46 H46            1.6777     2.9428    -1.3637 H       
  47 H47            2.9372     3.5165    -0.1448 H       
  48 H48           -6.1769     1.3267    -1.0704 H       
  49 H49           -5.4710     2.7236    -0.2227 H       
  50 H50           -5.2067     2.5168    -1.9707 H       
  51 H51           -3.2701    -2.7346     0.6327 H       
  52 H52           -4.0209    -2.7286    -0.9812 H       
  53 H53           -2.2519    -2.8464    -0.8230 H       
@<TRIPOS>BOND
   1    1    2 am
   2    1   26 1
   3    1    6 am
   4    2    3 am
   5    2   25 2
   6    3    4 1
   7    3   11 1
   8    4    5 1
   9    4    7 2
  10    5    6 1
  11    5   10 2
  12    6   27 2
  13    7    8 1
  14    7   32 1
  15    8    9 am
  16    8   17 2
  17    9   10 1
  18    9   30 1
  19   10   18 1
  20   11   12 ar
  21   11   16 ar
  22   12   13 ar
  23   12   33 1
  24   13   14 ar
  25   13   34 1
  26   14   15 ar
  27   14   35 1
  28   15   16 ar
  29   15   36 1
  30   16   37 1
  31   18   19 1
  32   18   38 1
  33   19   20 ar
  34   19   24 ar
  35   20   21 ar
  36   20   39 1
  37   21   22 ar
  38   21   40 1
  39   22   23 ar
  40   22   31 1
  41   23   24 ar
  42   23   41 1
  43   24   42 1
  44   26   28 1
  45   26   29 1
  46   26   43 1
  47   28   29 1
  48   28   44 1
  49   28   45 1
  50   29   46 1
  51   29   47 1
  52   30   48 1
  53   30   49 1
  54   30   50 1
  55   32   51 1
  56   32   52 1
  57   32   53 1

#	End of record

