#	Name: ASD01142003
#	Creating user name:	WinNT
#	Creation time:	15. 06. 2019 19:01

#	Modifying user name:	WinNT
#	Modification time:	15. 06. 2019 19:01

#	Program:	/corina/corina34_cracker 3.40 0067  02.08.2006

@<TRIPOS>MOLECULE
ASD01142003
  39   41    0    0    0
SMALL
NO_CHARGES


@<TRIPOS>ATOM
   1 C1             0.0940     0.8935     1.0465 C.ar    
   2 C2             0.3010    -0.4788     1.0169 C.ar    
   3 C3             1.5306    -1.0032     0.6485 C.ar    
   4 C4             2.5807    -0.1250     0.3003 C.ar    
   5 C5             2.3483     1.2708     0.3371 C.ar    
   6 C6             1.0940     1.7622     0.7141 C.ar    
   7 N7             3.7850    -0.5834    -0.0615 N.ar    
   8 N8             4.7465     0.2054    -0.3795 N.ar    
   9 C9             4.6312     1.5347    -0.3774 C.ar    
  10 C10            3.4158     2.1339    -0.0162 C.ar    
  11 N11            3.2662     3.5030    -0.0038 N.pl3   
  12 C12            1.7408    -2.4686     0.6208 C.ar    
  13 N13            0.7392    -3.2732     0.9525 N.ar    
  14 C14            0.8940    -4.5857     0.9376 C.ar    
  15 C15            2.1207    -5.1185     0.5698 C.ar    
  16 C16            3.1464    -4.2492     0.2289 C.ar    
  17 N17            2.9247    -2.9466     0.2595 N.ar    
  18 C18            5.7823     2.3740    -0.7550 C.2     
  19 N19            6.9812     1.8061    -0.9929 N.am    
  20 O20            5.6503     3.5791    -0.8520 O.2     
  21 C21            8.1254     2.6405    -1.3683 C.3     
  22 C22            9.3549     1.7548    -1.5796 C.3     
  23 C23           10.5499     2.6262    -1.9716 C.3     
  24 H24           -0.8733     1.2797     1.3323 H       
  25 H25           -0.5051    -1.1460     1.2844 H       
  26 H26            0.9167     2.8272     0.7426 H       
  27 H27            4.0469     4.0757     0.0546 H       
  28 H28            2.3801     3.8945    -0.0536 H       
  29 H29            0.0752    -5.2356     1.2090 H       
  30 H30            2.2741    -6.1874     0.5495 H       
  31 H31            4.1134    -4.6322    -0.0620 H       
  32 H32            7.0864     0.8450    -0.9156 H       
  33 H33            7.8988     3.1738    -2.2915 H       
  34 H34            8.3273     3.3589    -0.5738 H       
  35 H35            9.5815     1.2215    -0.6564 H       
  36 H36            9.1530     1.0364    -2.3740 H       
  37 H37           10.3233     3.1595    -2.8948 H       
  38 H38           10.7518     3.3446    -1.1771 H       
  39 H39           11.4258     1.9952    -2.1221 H       
@<TRIPOS>BOND
   1    1    2 ar
   2    1    6 ar
   3    1   24 1
   4    2    3 ar
   5    2   25 1
   6    3    4 ar
   7    3   12 1
   8    4    5 ar
   9    4    7 ar
  10    5    6 ar
  11    5   10 ar
  12    6   26 1
  13    7    8 ar
  14    8    9 ar
  15    9   10 ar
  16    9   18 1
  17   10   11 1
  18   11   27 1
  19   11   28 1
  20   12   13 ar
  21   12   17 ar
  22   13   14 ar
  23   14   15 ar
  24   14   29 1
  25   15   16 ar
  26   15   30 1
  27   16   17 ar
  28   16   31 1
  29   18   19 am
  30   18   20 2
  31   19   21 1
  32   19   32 1
  33   21   22 1
  34   21   33 1
  35   21   34 1
  36   22   23 1
  37   22   35 1
  38   22   36 1
  39   23   37 1
  40   23   38 1
  41   23   39 1

#	End of record

