#	Name: ASD01028735
#	Creating user name:	WinNT
#	Creation time:	15. 06. 2019 18:58

#	Modifying user name:	WinNT
#	Modification time:	15. 06. 2019 18:58

#	Program:	/corina/corina34_cracker 3.40 0067  02.08.2006

@<TRIPOS>MOLECULE
ASD01028735
  45   47    0    0    0
SMALL
NO_CHARGES


@<TRIPOS>ATOM
   1 C1            -0.0184     1.5028     0.0103 C.2     
   2 C2             0.0021    -0.0041     0.0020 C.3     
   3 O3             1.0236     2.1234     0.0037 O.2     
   4 N4            -1.1946     2.1607     0.0195 N.am    
   5 N5            -1.2136     3.5616     0.0272 N.pl3   
   6 N6             4.8731    -1.8244     2.1386 N.ar    
   7 C7             5.0050    -2.0581     3.4210 C.ar    
   8 C8             3.9464    -1.8671     4.3148 C.ar    
   9 C9             2.7353    -1.4248     3.8517 C.ar    
  10 C10            2.6027    -1.1765     2.4733 C.ar    
  11 C11            1.3916    -0.7222     1.9265 C.ar    
  12 C12            1.3021    -0.4920     0.5875 C.ar    
  13 C13            2.3967    -0.7022    -0.2485 C.ar    
  14 C14            3.5851    -1.1429     0.2475 C.ar    
  15 C15            3.7173    -1.3915     1.6246 C.ar    
  16 O16            4.1186    -2.1199     5.6390 O.3     
  17 C17            5.4081    -2.5788     6.0496 C.3     
  18 C18            5.4102    -2.8077     7.5624 C.3     
  19 O19            4.5106    -3.8702     7.8846 O.3     
  20 C20            4.4371    -4.1663     9.2806 C.3     
  21 F21           -1.0647    -0.4891     0.7662 F       
  22 F22           -0.1191    -0.4649    -1.3134 F       
  23 C23           -2.4277     4.2407     0.0366 C.ar    
  24 C24           -2.4500     5.6355     0.0443 C.ar    
  25 C25           -3.6844     6.2642     0.0536 C.ar    
  26 C26           -4.8229     5.4675     0.0547 C.ar    
  27 N27           -4.7080     4.1538     0.0470 N.ar    
  28 N28           -3.5672     3.5658     0.0329 N.ar    
  29 Cl29          -6.3960     6.2014     0.0668 Cl      
  30 H30           -2.0280     1.6644     0.0207 H       
  31 H31           -0.3802     4.0579     0.0259 H       
  32 H32            5.9551    -2.4074     3.7974 H       
  33 H33            1.9055    -1.2715     4.5258 H       
  34 H34            0.5362    -0.5560     2.5645 H       
  35 H35            2.3004    -0.5128    -1.3074 H       
  36 H36            4.4234    -1.3013    -0.4147 H       
  37 H37            5.6400    -3.5142     5.5403 H       
  38 H38            6.1584    -1.8304     5.7943 H       
  39 H39            6.4162    -3.0719     7.8885 H       
  40 H40            5.0920    -1.8961     8.0682 H       
  41 H41            5.4229    -4.4587     9.6424 H       
  42 H42            4.0987    -3.2829     9.8221 H       
  43 H43            3.7338    -4.9832     9.4423 H       
  44 H44           -1.5338     6.2072     0.0434 H       
  45 H45           -3.7596     7.3416     0.0602 H       
@<TRIPOS>BOND
   1    1    2 1
   2    1    3 2
   3    1    4 am
   4    2   12 1
   5    2   21 1
   6    2   22 1
   7    4    5 1
   8    4   30 1
   9    5   23 1
  10    5   31 1
  11    6    7 ar
  12    6   15 ar
  13    7    8 ar
  14    7   32 1
  15    8    9 ar
  16    8   16 1
  17    9   10 ar
  18    9   33 1
  19   10   11 ar
  20   10   15 ar
  21   11   12 ar
  22   11   34 1
  23   12   13 ar
  24   13   14 ar
  25   13   35 1
  26   14   15 ar
  27   14   36 1
  28   16   17 1
  29   17   18 1
  30   17   37 1
  31   17   38 1
  32   18   19 1
  33   18   39 1
  34   18   40 1
  35   19   20 1
  36   20   41 1
  37   20   42 1
  38   20   43 1
  39   23   24 ar
  40   23   28 ar
  41   24   25 ar
  42   24   44 1
  43   25   26 ar
  44   25   45 1
  45   26   27 ar
  46   26   29 1
  47   27   28 ar

#	End of record

