#	Name: ASD00960067
#	Creating user name:	WinNT
#	Creation time:	15. 06. 2019 18:53

#	Modifying user name:	WinNT
#	Modification time:	15. 06. 2019 18:53

#	Program:	/corina/corina34_cracker 3.40 0067  02.08.2006

@<TRIPOS>MOLECULE
ASD00960067
  42   45    0    0    0
SMALL
NO_CHARGES


@<TRIPOS>ATOM
   1 C1            -0.5072     1.7156    -0.8580 C.3     
   2 C2            -0.4886     0.1789    -1.0173 C.3     
   3 C3            -0.7026    -0.3499     0.4183 C.3     
   4 O4            -1.3752     0.7243     1.1108 O.3     
   5 C5            -0.7302     1.9335     0.6550 C.3     
   6 C6            -1.6376     3.1426     0.8910 C.3     
   7 C7            -1.5671    -1.5842     0.3993 C.2     
   8 C8            -1.1226    -2.8481     0.1964 C.2     
   9 N9            -2.9071    -1.6032     0.5880 N.pl3   
  10 C10           -3.3478    -2.9081     0.5013 C.2     
  11 C11           -2.2343    -3.7112     0.2540 C.2     
  12 N12           -3.8527    -0.5980     0.8373 N.2     
  13 C13           -5.1125    -0.9075     0.9809 C.2     
  14 N14           -5.5496    -2.1623     0.8995 N.2     
  15 C15           -4.7230    -3.1701     0.6673 C.2     
  16 O16           -1.7963     3.3521     2.2956 O.3     
  17 N17           -5.2025    -4.4628     0.5879 N.pl3   
  18 C18           -2.2233    -5.1782     0.0855 C.2     
  19 N19           -3.0869    -5.9228    -0.6714 N.pl3   
  20 N20           -2.6855    -7.2589    -0.5237 N.2     
  21 N21           -1.6652    -7.2910     0.2600 N.2     
  22 C22           -1.3459    -6.0593     0.6494 C.2     
  23 C23           -1.6261    -0.2790    -1.9324 C.3     
  24 O24            0.7423     2.2764    -1.2657 O.3     
  25 *25            0.6416     3.5819    -1.7888 Du      
  26 O26            0.7718    -0.2560    -1.5313 O.3     
  27 *27            1.0786     0.2576    -2.8081 Du      
  28 H28           -1.3252     2.1494    -1.4331 H       
  29 H29            0.2561    -0.5643     0.8906 H       
  30 H30            0.2243     2.0693     1.1636 H       
  31 H31           -1.1884     4.0274     0.4401 H       
  32 H32           -2.6122     2.9592     0.4386 H       
  33 H33           -0.0981    -3.1415     0.0214 H       
  34 H34           -5.8247    -0.1186     1.1728 H       
  35 H35           -2.3610     4.1044     2.5197 H       
  36 H36           -6.1582    -4.6240     0.5479 H       
  37 H37           -4.5836    -5.2095     0.5722 H       
  38 H38           -3.8280    -5.5928    -1.2032 H       
  39 H39           -0.5307    -5.7998     1.3086 H       
  40 H40           -1.4954     0.1596    -2.9217 H       
  41 H41           -1.6130    -1.3660    -2.0123 H       
  42 H42           -2.5801     0.0432    -1.5152 H       
@<TRIPOS>BOND
   1    1    2 1
   2    1   24 1
   3    1    5 1
   4    1   28 1
   5    2   23 1
   6    2   26 1
   7    2    3 1
   8    3    4 1
   9    3    7 1
  10    3   29 1
  11    4    5 1
  12    5    6 1
  13    5   30 1
  14    6   16 1
  15    6   31 1
  16    6   32 1
  17    7    8 2
  18    7    9 1
  19    8   11 1
  20    8   33 1
  21    9   10 1
  22    9   12 1
  23   10   11 2
  24   10   15 1
  25   11   18 1
  26   12   13 2
  27   13   14 1
  28   13   34 1
  29   14   15 2
  30   15   17 1
  31   16   35 1
  32   17   36 1
  33   17   37 1
  34   18   19 1
  35   18   22 2
  36   19   20 1
  37   19   38 1
  38   20   21 2
  39   21   22 1
  40   22   39 1
  41   23   40 1
  42   23   41 1
  43   23   42 1
  44   24   25 1
  45   26   27 1

#	End of record

