#	Name: ASD00840568
#	Creating user name:	WinNT
#	Creation time:	15. 06. 2019 18:39

#	Modifying user name:	WinNT
#	Modification time:	15. 06. 2019 18:39

#	Program:	/corina/corina34_cracker 3.40 0067  02.08.2006

@<TRIPOS>MOLECULE
ASD00840568
  93   98    0    0    0
SMALL
NO_CHARGES


@<TRIPOS>ATOM
   1 N1             1.0653     1.4638    -0.7389 N.ar    
   2 C2             1.3282     0.1727    -0.8522 C.ar    
   3 C3             1.2501    -0.6652     0.2532 C.ar    
   4 C4             0.8925    -0.1313     1.4787 C.ar    
   5 C5             0.6245     1.2287     1.5557 C.ar    
   6 C6             0.7218     2.0017     0.4161 C.ar    
   7 C7             1.5501    -2.1359     0.1192 C.3     
   8 C8             1.2697    -2.8552     1.4214 C.2     
   9 C9             0.7299    -2.7475    -1.0184 C.3     
  10 C10           -0.7324    -2.4609    -0.7937 C.2     
  11 N11           -1.6566    -2.9804    -1.6259 N.am    
  12 O12           -1.0776    -1.7626     0.1359 O.2     
  13 C13           -3.0745    -2.6209    -1.4881 C.3     
  14 C14           -3.9003    -3.9063    -1.3752 C.3     
  15 C15           -3.5946    -4.8109    -2.5712 C.3     
  16 C16           -2.1113    -5.1875    -2.5621 C.3     
  17 C17           -1.2644    -3.9123    -2.6920 C.3     
  18 N18           -4.4095    -6.0300    -2.4836 N.3     
  19 C19           -4.2310    -6.8697    -3.6764 C.3     
  20 C20           -5.0324    -8.1631    -3.5111 C.3     
  21 N21           -6.4505    -7.8351    -3.3089 N.3     
  22 C22           -6.6291    -6.9954    -2.1162 C.3     
  23 C23           -5.8277    -5.7020    -2.2815 C.3     
  24 C24           -7.2655    -9.0542    -3.2214 C.3     
  25 O25            0.1983    -2.9344     1.9844 O.2     
  26 N26            2.4308    -3.3890     1.8367 N.am    
  27 C27            3.0276    -2.3561    -0.1117 C.ar    
  28 C28            3.4818    -3.1148     0.9600 C.ar    
  29 C29            3.8872    -1.9610    -1.1118 C.ar    
  30 C30            5.2235    -2.3204    -1.0564 C.ar    
  31 C31            5.6892    -3.0770     0.0072 C.ar    
  32 C32            4.8267    -3.4737     1.0112 C.ar    
  33 Cl33           6.3114    -1.8252    -2.3153 Cl      
  34 F34            6.9925    -3.4283     0.0626 F       
  35 C35            2.3052    -5.9587     2.8141 C.ar    
  36 C36            3.3583    -6.7643     2.4219 C.ar    
  37 C37            1.0253    -6.4768     2.8872 C.ar    
  38 C38            0.7958    -7.8012     2.5683 C.ar    
  39 C39            1.8507    -8.6115     2.1745 C.ar    
  40 C40            3.1339    -8.0892     2.1015 C.ar    
  41 O41            1.6276    -9.9148     1.8607 O.3     
  42 H42            4.3570    -6.3572     2.3656 H       
  43 C43            2.7606   -10.6897     1.4634 C.3     
  44 C44           -8.6801    -8.6904    -2.7661 C.3     
  45 C45           -9.5289    -9.9601    -2.6748 C.3     
  46 S46            2.5958    -4.2710     3.2285 S.o2    
  47 O47            3.9638    -4.1793     3.6018 O.2     
  48 O48            1.5294    -3.8779     4.0815 O.2     
  49 O49            1.6773    -0.3386    -2.0595 O.3     
  50 C50            2.1665    -0.1661    -4.4199 C.3     
  51 C51            1.6323     0.5500    -3.1778 C.3     
  52 H52            0.8232    -0.7584     2.3553 H       
  53 H53            0.3424     1.6769     2.4969 H       
  54 H54            0.5147     3.0603     0.4707 H       
  55 H55            1.0439    -2.3126    -1.9672 H       
  56 H56            0.8893    -3.8256    -1.0424 H       
  57 H57           -3.2130    -2.0177    -0.5908 H       
  58 H58           -3.3951    -2.0563    -2.3636 H       
  59 H59           -3.6423    -4.4245    -0.4517 H       
  60 H60           -4.9615    -3.6575    -1.3691 H       
  61 H61           -3.8296    -4.2829    -3.4953 H       
  62 H62           -1.8701    -5.6937    -1.6274 H       
  63 H63           -1.8992    -5.8506    -3.4008 H       
  64 H64           -1.4386    -3.4556    -3.6662 H       
  65 H65           -0.2087    -4.1625    -2.5869 H       
  66 H66           -4.5854    -6.3321    -4.5559 H       
  67 H67           -3.1746    -7.1094    -3.7975 H       
  68 H68           -4.9246    -8.7746    -4.4069 H       
  69 H69           -4.6598    -8.7139    -2.6474 H       
  70 H70           -7.6855    -6.7557    -1.9950 H       
  71 H71           -6.2747    -7.5330    -1.2367 H       
  72 H72           -5.9354    -5.0905    -1.3856 H       
  73 H73           -6.2003    -5.1512    -3.1451 H       
  74 H74           -7.3104    -9.5323    -4.1999 H       
  75 H75           -6.8174    -9.7399    -2.5022 H       
  76 H76            3.5198    -1.3718    -1.9389 H       
  77 H77            5.1962    -4.0630     1.8375 H       
  78 H78            0.2045    -5.8456     3.1942 H       
  79 H79           -0.2040    -8.2055     2.6259 H       
  80 H80            3.9568    -8.7181     1.7956 H       
  81 H81            2.4441   -11.7089     1.2416 H       
  82 H82            3.2097   -10.2471     0.5743 H       
  83 H83            3.4923   -10.7041     2.2712 H       
  84 H84           -8.6352    -8.2123    -1.7875 H       
  85 H85           -9.1282    -8.0047    -3.4852 H       
  86 H86          -10.5367    -9.7009    -2.3505 H       
  87 H87           -9.5738   -10.4382    -3.6534 H       
  88 H88           -9.0808   -10.6458    -1.9557 H       
  89 H89            3.1641    -0.5543    -4.2146 H       
  90 H90            1.5018    -0.9905    -4.6780 H       
  91 H91            2.2142     0.5364    -5.2519 H       
  92 H92            0.6027     0.8619    -3.3529 H       
  93 H93            2.2471     1.4259    -2.9708 H       
@<TRIPOS>BOND
   1    1    2 ar
   2    1    6 ar
   3    2    3 ar
   4    2   49 1
   5    3    4 ar
   6    3    7 1
   7    4    5 ar
   8    4   52 1
   9    5    6 ar
  10    5   53 1
  11    6   54 1
  12    7    8 1
  13    7    9 1
  14    7   27 1
  15    8   25 2
  16    8   26 am
  17    9   10 1
  18    9   55 1
  19    9   56 1
  20   10   11 am
  21   10   12 2
  22   11   13 1
  23   11   17 1
  24   13   14 1
  25   13   57 1
  26   13   58 1
  27   14   15 1
  28   14   59 1
  29   14   60 1
  30   15   16 1
  31   15   18 1
  32   15   61 1
  33   16   17 1
  34   16   62 1
  35   16   63 1
  36   17   64 1
  37   17   65 1
  38   18   19 1
  39   18   23 1
  40   19   20 1
  41   19   66 1
  42   19   67 1
  43   20   21 1
  44   20   68 1
  45   20   69 1
  46   21   22 1
  47   21   24 1
  48   22   23 1
  49   22   70 1
  50   22   71 1
  51   23   72 1
  52   23   73 1
  53   24   44 1
  54   24   74 1
  55   24   75 1
  56   26   46 am
  57   26   28 1
  58   27   28 ar
  59   27   29 ar
  60   28   32 ar
  61   29   30 ar
  62   29   76 1
  63   30   31 ar
  64   30   33 1
  65   31   32 ar
  66   31   34 1
  67   32   77 1
  68   35   36 ar
  69   35   37 ar
  70   35   46 1
  71   36   42 1
  72   36   40 ar
  73   37   38 ar
  74   37   78 1
  75   38   39 ar
  76   38   79 1
  77   39   40 ar
  78   39   41 1
  79   40   80 1
  80   41   43 1
  81   43   81 1
  82   43   82 1
  83   43   83 1
  84   44   45 1
  85   44   84 1
  86   44   85 1
  87   45   86 1
  88   45   87 1
  89   45   88 1
  90   46   47 2
  91   46   48 2
  92   49   51 1
  93   50   51 1
  94   50   89 1
  95   50   90 1
  96   50   91 1
  97   51   92 1
  98   51   93 1

#	End of record

