#	Name: ASD03430649
#	Creating user name:	WinNT
#	Creation time:	15. 06. 2019 20:41

#	Modifying user name:	WinNT
#	Modification time:	15. 06. 2019 20:41

#	Program:	/corina/corina34_cracker 3.40 0067  02.08.2006

@<TRIPOS>MOLECULE
ASD03430649
  55   60    0    0    0
SMALL
NO_CHARGES


@<TRIPOS>ATOM
   1 N1            -0.0157     1.4932     0.4902 N.am    
   2 C2             0.0409     0.2263     0.9344 C.2     
   3 C3             1.4804    -0.0488     1.3139 C.3     
   4 C4             2.1944     1.2486     1.0120 C.ar    
   5 C5             3.5067     1.6460     1.1357 C.ar    
   6 C6             3.8770     2.9284     0.7700 C.ar    
   7 C7             2.9262     3.8060     0.2815 C.ar    
   8 C8             1.6106     3.4104     0.1566 C.ar    
   9 C9             1.2302     2.1206     0.5228 C.ar    
  10 O10           -0.8869    -0.5506     1.0164 O.2     
  11 N11            1.8890    -1.3258     6.7752 N.ar    
  12 C12            1.4712    -0.4584     7.6690 C.ar    
  13 C13            0.9313     0.7674     7.2752 C.ar    
  14 N14            0.8304     1.0787     6.0030 N.ar    
  15 C15            1.2488     0.2136     5.0734 C.ar    
  16 C16            1.1533     0.5183     3.7038 C.ar    
  17 C17            1.5858    -0.3807     2.7801 C.ar    
  18 C18            2.1269    -1.6098     3.1721 C.ar    
  19 C19            2.2345    -1.9381     4.4937 C.ar    
  20 C20            1.7971    -1.0323     5.4730 C.ar    
  21 O21            2.5504    -2.4881     2.2264 O.3     
  22 C22           -1.2434     2.1395     0.0197 C.3     
  23 C23           -0.9991     2.7578    -1.3327 C.ar    
  24 C24           -1.5150     4.0065    -1.6251 C.ar    
  25 C25           -1.2909     4.5737    -2.8657 C.ar    
  26 C26           -0.5505     3.8925    -3.8136 C.ar    
  27 C27           -0.0338     2.6442    -3.5208 C.ar    
  28 C28           -0.2542     2.0788    -2.2788 C.ar    
  29 C29           -2.3417     1.1132    -0.0882 C.ar    
  30 C30           -3.4804     1.2356     0.6859 C.ar    
  31 C31           -4.4879     0.2942     0.5870 C.ar    
  32 C32           -4.3568    -0.7692    -0.2864 C.ar    
  33 C33           -3.2185    -0.8911    -1.0612 C.ar    
  34 C34           -2.2129     0.0527    -0.9654 C.ar    
  35 H35            1.8871    -0.8585     0.7079 H       
  36 H36            4.2463     0.9579     1.5179 H       
  37 H37            4.9056     3.2431     0.8662 H       
  38 H38            3.2153     4.8068    -0.0034 H       
  39 H39            0.8740     4.1015    -0.2257 H       
  40 H40            1.5458    -0.6963     8.7199 H       
  41 H41            0.5925     1.4672     8.0247 H       
  42 H42            0.7370     1.4631     3.3868 H       
  43 H43            2.6537    -2.8902     4.7838 H       
  44 H44            3.4783    -2.3802     1.9767 H       
  45 H45           -1.5392     2.9153     0.7259 H       
  46 H46           -2.0935     4.5388    -0.8845 H       
  47 H47           -1.6946     5.5490    -3.0944 H       
  48 H48           -0.3760     4.3353    -4.7831 H       
  49 H49            0.5444     2.1118    -4.2615 H       
  50 H50            0.1526     1.1052    -2.0487 H       
  51 H51           -3.5828     2.0664     1.3683 H       
  52 H52           -5.3772     0.3894     1.1923 H       
  53 H53           -5.1436    -1.5051    -0.3632 H       
  54 H54           -3.1159    -1.7221    -1.7433 H       
  55 H55           -1.3252    -0.0405    -1.5734 H       
@<TRIPOS>BOND
   1    1    2 am
   2    1    9 1
   3    1   22 1
   4    2    3 1
   5    2   10 2
   6    3    4 1
   7    3   17 1
   8    3   35 1
   9    4    5 ar
  10    4    9 ar
  11    5    6 ar
  12    5   36 1
  13    6    7 ar
  14    6   37 1
  15    7    8 ar
  16    7   38 1
  17    8    9 ar
  18    8   39 1
  19   11   12 ar
  20   11   20 ar
  21   12   13 ar
  22   12   40 1
  23   13   14 ar
  24   13   41 1
  25   14   15 ar
  26   15   16 ar
  27   15   20 ar
  28   16   17 ar
  29   16   42 1
  30   17   18 ar
  31   18   19 ar
  32   18   21 1
  33   19   20 ar
  34   19   43 1
  35   21   44 1
  36   22   23 1
  37   22   29 1
  38   22   45 1
  39   23   24 ar
  40   23   28 ar
  41   24   25 ar
  42   24   46 1
  43   25   26 ar
  44   25   47 1
  45   26   27 ar
  46   26   48 1
  47   27   28 ar
  48   27   49 1
  49   28   50 1
  50   29   30 ar
  51   29   34 ar
  52   30   31 ar
  53   30   51 1
  54   31   32 ar
  55   31   52 1
  56   32   33 ar
  57   32   53 1
  58   33   34 ar
  59   33   54 1
  60   34   55 1

#	End of record

