#	Name: ASD01208731
#	Creating user name:	WinNT
#	Creation time:	15. 06. 2019 19:10

#	Modifying user name:	WinNT
#	Modification time:	15. 06. 2019 19:10

#	Program:	/corina/corina34_cracker 3.40 0067  02.08.2006

@<TRIPOS>MOLECULE
ASD01208731
  59   63    0    0    0
SMALL
NO_CHARGES


@<TRIPOS>ATOM
   1 C1            -0.0507     1.3604    -0.4067 C.2     
   2 C2             0.0243     0.0688     0.2966 C.ar    
   3 C3             1.2622    -0.5716     0.4643 C.ar    
   4 C4             1.3236    -1.7853     1.1271 C.ar    
   5 C5             0.1649    -2.3649     1.6231 C.ar    
   6 C6            -1.0629    -1.7315     1.4572 C.ar    
   7 C7            -1.1364    -0.5221     0.8053 C.ar    
   8 O8             0.9613     1.8745    -0.8437 O.2     
   9 N9            -1.2413     1.9701    -0.5710 N.am    
  10 O10            2.3940    -0.0035    -0.0217 O.3     
  11 C11            3.5509    -0.7093     0.0675 C.ar    
  12 C12            3.9122    -1.5791    -0.9537 C.ar    
  13 C13            5.0851    -2.2971    -0.8670 C.ar    
  14 C14            5.9112    -2.1494     0.2497 C.ar    
  15 C15            5.5443    -1.2737     1.2743 C.ar    
  16 C16            4.3725    -0.5552     1.1772 C.ar    
  17 O17            8.0552    -2.8718     1.3624 O.3     
  18 C18            7.1688    -2.9171     0.3469 C.2     
  19 N19            7.6299    -3.7702    -0.5401 N.2     
  20 N20            8.7494    -4.2519    -0.1277 N.2     
  21 C21            9.0477    -3.7260     1.0383 C.2     
  22 C22           10.2500    -4.0162     1.8463 C.ar    
  23 C23           11.2014    -4.9282     1.3854 C.ar    
  24 C24           12.3217    -5.1945     2.1449 C.ar    
  25 C25           12.5035    -4.5605     3.3612 C.ar    
  26 C26           11.5647    -3.6555     3.8240 C.ar    
  27 C27           10.4429    -3.3753     3.0717 C.ar    
  28 S28           -2.7861     4.1080    -1.5289 S.3     
  29 C29           -1.3121     3.1893    -1.2349 C.2     
  30 N30           -0.3027     3.8326    -1.7366 N.2     
  31 C31           -0.5612     4.9812    -2.3338 C.2     
  32 C32           -1.8439     5.3497    -2.3515 C.2     
  33 F33           -2.3354     6.4801    -2.9044 F       
  34 O34            0.2290    -3.5549     2.2723 O.3     
  35 C35           -1.0011    -4.0962     2.7579 C.3     
  36 C36           -0.7309    -5.4306     3.4560 C.3     
  37 C37           -2.0282    -6.0014     3.9680 C.2     
  38 C38           -2.3938    -7.2107     3.6213 C.2     
  39 H39            2.2739    -2.2814     1.2579 H       
  40 H40           -1.9610    -2.1889     1.8453 H       
  41 H41           -2.0907    -0.0314     0.6829 H       
  42 H42           -2.0489     1.5581    -0.2259 H       
  43 H43            3.2728    -1.6931    -1.8166 H       
  44 H44            5.3651    -2.9734    -1.6611 H       
  45 H45            6.1803    -1.1567     2.1393 H       
  46 H46            4.0904     0.1256     1.9667 H       
  47 H47           11.0603    -5.4243     0.4365 H       
  48 H48           13.0584    -5.8998     1.7895 H       
  49 H49           13.3821    -4.7731     3.9522 H       
  50 H50           11.7125    -3.1644     4.7744 H       
  51 H51            9.7130    -2.6654     3.4319 H       
  52 H52            0.2159     5.5845    -2.7794 H       
  53 H53           -1.4500    -3.3999     3.4662 H       
  54 H54           -1.6831    -4.2548     1.9225 H       
  55 H55           -0.2820    -6.1269     2.7476 H       
  56 H56           -0.0489    -5.2721     4.2913 H       
  57 H57           -2.6565    -5.4136     4.6207 H       
  58 H58           -3.3236    -7.6198     3.9882 H       
  59 H59           -1.7655    -7.7985     2.9685 H       
@<TRIPOS>BOND
   1    1    2 1
   2    1    8 2
   3    1    9 am
   4    2    3 ar
   5    2    7 ar
   6    3    4 ar
   7    3   10 1
   8    4    5 ar
   9    4   39 1
  10    5    6 ar
  11    5   34 1
  12    6    7 ar
  13    6   40 1
  14    7   41 1
  15    9   29 1
  16    9   42 1
  17   10   11 1
  18   11   12 ar
  19   11   16 ar
  20   12   13 ar
  21   12   43 1
  22   13   14 ar
  23   13   44 1
  24   14   15 ar
  25   14   18 1
  26   15   16 ar
  27   15   45 1
  28   16   46 1
  29   17   18 1
  30   17   21 1
  31   18   19 2
  32   19   20 1
  33   20   21 2
  34   21   22 1
  35   22   23 ar
  36   22   27 ar
  37   23   24 ar
  38   23   47 1
  39   24   25 ar
  40   24   48 1
  41   25   26 ar
  42   25   49 1
  43   26   27 ar
  44   26   50 1
  45   27   51 1
  46   28   29 1
  47   28   32 1
  48   29   30 2
  49   30   31 1
  50   31   32 2
  51   31   52 1
  52   32   33 1
  53   34   35 1
  54   35   36 1
  55   35   53 1
  56   35   54 1
  57   36   37 1
  58   36   55 1
  59   36   56 1
  60   37   38 2
  61   37   57 1
  62   38   58 1
  63   38   59 1

#	End of record

