#	Name: ASD09740297
#	Creating user name:	WinNT
#	Creation time:	15. 06. 2019 21:23

#	Modifying user name:	WinNT
#	Modification time:	15. 06. 2019 21:23

#	Program:	/corina/corina34_cracker 3.40 0067  02.08.2006

@<TRIPOS>MOLECULE
ASD09740297
  47   49    0    0    0
SMALL
NO_CHARGES


@<TRIPOS>ATOM
   1 N1            -0.0144     1.2085     0.0087 N.2     
   2 O2             0.0021    -0.0041     0.0020 O.3     
   3 C3             1.2060     1.6802    -0.0004 C.2     
   4 N4             2.0461     0.6244    -0.0141 N.2     
   5 C5             1.2702    -0.4440    -0.0125 C.2     
   6 C6             1.7127    -1.8530    -0.0238 C.ar    
   7 C7             1.5948     3.1129     0.0035 C.ar    
   8 C8             2.9406     3.4720    -0.0079 C.ar    
   9 C9             3.2965     4.8058    -0.0041 C.ar    
  10 C10            2.3197     5.7846     0.0111 C.ar    
  11 C11            0.9816     5.4335     0.0229 C.ar    
  12 C12            0.6147     4.1032     0.0130 C.ar    
  13 C13            3.0750    -2.1582    -0.0380 C.ar    
  14 C14            3.4867    -3.4743    -0.0486 C.ar    
  15 C15            2.5497    -4.4975    -0.0453 C.ar    
  16 C16            1.1881    -4.1996    -0.0312 C.ar    
  17 C17            0.7691    -2.8832    -0.0146 C.ar    
  18 O18            0.2721    -5.2049    -0.0284 O.3     
  19 C19           -1.9794    -6.0830    -0.0126 C.3     
  20 C20           -1.1059    -4.8268    -0.0136 C.3     
  21 O21            2.9603    -5.7926    -0.0563 O.3     
  22 C22            4.3700    -6.0262    -0.0710 C.3     
  23 C23            4.6372    -7.5326    -0.0817 C.3     
  24 C24           -0.0772     6.5057     0.0404 C.3     
  25 C25           -0.8433     3.7222     0.0255 C.3     
  26 H26            3.7042     2.7083    -0.0194 H       
  27 H27            4.3397     5.0853    -0.0126 H       
  28 H28            2.6025     6.8270     0.0140 H       
  29 H29            3.8064    -1.3636    -0.0410 H       
  30 H30            4.5408    -3.7090    -0.0600 H       
  31 H31           -0.2855    -2.6510    -0.0033 H       
  32 H32           -3.0305    -5.7947    -0.0014 H       
  33 H33           -1.7731    -6.6697    -0.9078 H       
  34 H34           -1.7568    -6.6796     0.8720 H       
  35 H35           -1.3122    -4.2402     0.8816 H       
  36 H36           -1.3285    -4.2302    -0.8983 H       
  37 H37            4.8039    -5.5738    -0.9627 H       
  38 H38            4.8209    -5.5835     0.8172 H       
  39 H39            5.7125    -7.7108    -0.0929 H       
  40 H40            4.2033    -7.9850     0.8100 H       
  41 H41            4.1863    -7.9753    -0.9699 H       
  42 H42           -0.3432     6.7704    -0.9830 H       
  43 H43           -0.9603     6.1358     0.5613 H       
  44 H44            0.3061     7.3865     0.5556 H       
  45 H45           -1.2065     3.6413    -0.9991 H       
  46 H46           -0.9641     2.7639     0.5306 H       
  47 H47           -1.4139     4.4859     0.5539 H       
@<TRIPOS>BOND
   1    1    2 1
   2    1    3 2
   3    2    5 1
   4    3    4 1
   5    3    7 1
   6    4    5 2
   7    5    6 1
   8    6   13 ar
   9    6   17 ar
  10    7    8 ar
  11    7   12 ar
  12    8    9 ar
  13    8   26 1
  14    9   10 ar
  15    9   27 1
  16   10   11 ar
  17   10   28 1
  18   11   12 ar
  19   11   24 1
  20   12   25 1
  21   13   14 ar
  22   13   29 1
  23   14   15 ar
  24   14   30 1
  25   15   16 ar
  26   15   21 1
  27   16   17 ar
  28   16   18 1
  29   17   31 1
  30   18   20 1
  31   19   20 1
  32   19   32 1
  33   19   33 1
  34   19   34 1
  35   20   35 1
  36   20   36 1
  37   21   22 1
  38   22   23 1
  39   22   37 1
  40   22   38 1
  41   23   39 1
  42   23   40 1
  43   23   41 1
  44   24   42 1
  45   24   43 1
  46   24   44 1
  47   25   45 1
  48   25   46 1
  49   25   47 1

#	End of record

