#	Name: ASD09120006
#	Creating user name:	WinNT
#	Creation time:	15. 06. 2019 21:21

#	Modifying user name:	WinNT
#	Modification time:	15. 06. 2019 21:21

#	Program:	/corina/corina34_cracker 3.40 0067  02.08.2006

@<TRIPOS>MOLECULE
ASD09120006
  34   35    0    0    0
SMALL
NO_CHARGES


@<TRIPOS>ATOM
   1 C1            -0.0302     1.3762    -0.0500 C.ar    
   2 C2            -0.0240    -0.0030    -0.0691 C.ar    
   3 C3             0.8951    -0.7052     0.6907 C.ar    
   4 C4             1.8135    -0.0308     1.4748 C.ar    
   5 C5             1.8189     1.3500     1.5038 C.ar    
   6 C6             0.8936     2.0646     0.7384 C.ar    
   7 N7            -1.0033    -0.7340    -0.9042 N.pl3   
   8 O8            -1.8133    -0.1177    -1.5733 O.2     
   9 O9            -0.9993    -1.9519    -0.9223 O.2     
  10 C10            0.8930     3.5418     0.7633 C.2     
  11 O11            1.6987     4.1385     1.4508 O.2     
  12 N12           -0.0009     4.2279     0.0238 N.am    
  13 C13           -0.0666     5.6214     0.1217 C.ar    
  14 Cl14           2.9717     2.1954     2.4888 Cl      
  15 C15            1.0249     7.7373     0.4083 C.ar    
  16 C16            1.0932     6.3611     0.3119 C.ar    
  17 C17           -1.2915     6.2691     0.0233 C.ar    
  18 C18           -1.3529     7.6452     0.1204 C.ar    
  19 C19           -0.1966     8.3785     0.3155 C.ar    
  20 C20           -2.6813     8.3488     0.0132 C.3     
  21 C21           -3.3036     8.4784     1.4049 C.3     
  22 H22           -0.7454     1.9224    -0.6471 H       
  23 H23            0.8950    -1.7850     0.6716 H       
  24 H24            2.5275    -0.5851     2.0659 H       
  25 H25           -0.5986     3.7552    -0.5763 H       
  26 H26            1.9265     8.3131     0.5566 H       
  27 H27            2.0476     5.8608     0.3848 H       
  28 H28           -2.1948     5.6971    -0.1295 H       
  29 H29           -0.2474     9.4546     0.3915 H       
  30 H30           -2.5334     9.3412    -0.4125 H       
  31 H31           -3.3466     7.7729    -0.6301 H       
  32 H32           -3.4514     7.4859     1.8307 H       
  33 H33           -2.6383     9.0543     2.0482 H       
  34 H34           -4.2643     8.9872     1.3274 H       
@<TRIPOS>BOND
   1    1    2 ar
   2    1    6 ar
   3    1   22 1
   4    2    3 ar
   5    2    7 1
   6    3    4 ar
   7    3   23 1
   8    4    5 ar
   9    4   24 1
  10    5    6 ar
  11    5   14 1
  12    6   10 1
  13    7    8 2
  14    7    9 2
  15   10   11 2
  16   10   12 am
  17   12   13 1
  18   12   25 1
  19   13   17 ar
  20   13   16 ar
  21   15   16 ar
  22   15   19 ar
  23   15   26 1
  24   16   27 1
  25   17   18 ar
  26   17   28 1
  27   18   19 ar
  28   18   20 1
  29   19   29 1
  30   20   21 1
  31   20   30 1
  32   20   31 1
  33   21   32 1
  34   21   33 1
  35   21   34 1

#	End of record

