#	Name: ASD08150420
#	Creating user name:	WinNT
#	Creation time:	15. 06. 2019 21:16

#	Modifying user name:	WinNT
#	Modification time:	15. 06. 2019 21:16

#	Program:	/corina/corina34_cracker 3.40 0067  02.08.2006

@<TRIPOS>MOLECULE
ASD08150420
  68   73    0    0    0
SMALL
NO_CHARGES


@<TRIPOS>ATOM
   1 N1             0.4718    10.5968     2.6815 N.am    
   2 C2             0.1896    11.3956     3.7290 C.2     
   3 C3             0.1745    10.8869     5.0435 C.2     
   4 C4             0.4464     9.5767     5.2721 C.2     
   5 C5             0.7436     8.7336     4.1725 C.ar    
   6 C6             1.0317     7.3673     4.3541 C.ar    
   7 N7             1.3051     6.5917     3.3377 N.ar    
   8 C8             1.3272     7.0445     2.0749 C.ar    
   9 C9             1.0491     8.4058     1.7983 C.ar    
  10 C10            0.7499     9.2718     2.8763 C.ar    
  11 C11            1.0756     8.8680     0.4790 C.ar    
  12 C12            1.3747     7.9861    -0.5470 C.ar    
  13 C13            1.6484     6.6402    -0.2655 C.ar    
  14 C14            1.6265     6.1759     1.0125 C.ar    
  15 O15           -0.0556    12.5745     3.5374 O.2     
  16 C16            1.4050     8.4679    -1.9492 C.ar    
  17 C17            0.4747    11.1253     1.3839 C.ar    
  18 C18            1.6104    11.7579     0.8942 C.ar    
  19 C19            1.6136    12.2781    -0.3840 C.ar    
  20 C20            0.4808    12.1691    -1.1812 C.ar    
  21 C21           -0.6547    11.5366    -0.6914 C.ar    
  22 C22           -0.6557    11.0116     0.5854 C.ar    
  23 N23            0.4838    12.6965    -2.4759 N.3     
  24 C24            1.8143    12.5802    -3.0889 C.3     
  25 C25            0.0269    14.0932    -2.4767 C.3     
  26 C26           -0.0313    14.6073    -3.9171 C.3     
  27 N27            1.2993    14.4911    -4.5301 N.3     
  28 C28            1.7561    13.0943    -4.5293 C.3     
  29 C29            2.4203     8.0509    -2.8090 C.ar    
  30 C30            2.4466     8.5000    -4.1120 C.ar    
  31 C31            1.4616     9.3682    -4.5690 C.ar    
  32 C32            0.4483     9.7853    -3.7135 C.ar    
  33 C33            0.4149     9.3341    -2.4113 C.ar    
  34 N34            1.4904     9.8220    -5.8885 N.am    
  35 C35            2.9142     7.8010    -7.0803 C.3     
  36 C36           -1.8834    11.4182    -1.5558 C.3     
  37 F37           -2.5497    10.2246    -1.2583 F       
  38 F38           -2.7338    12.5012    -1.3084 F       
  39 F39           -1.5074    11.4190    -2.9034 F       
  40 S40            2.8451     9.5939    -6.8133 S.o2    
  41 O41            2.5564    10.2685    -8.0301 O.2     
  42 O42            3.9146    10.0152    -5.9779 O.2     
  43 H43           -0.0538    11.5417     5.8714 H       
  44 H44            0.4367     9.1826     6.2776 H       
  45 H45            1.0271     6.9526     5.3512 H       
  46 H46            0.8642     9.9044     0.2612 H       
  47 H47            1.8798     5.9631    -1.0745 H       
  48 H48            1.8405     5.1361     1.2113 H       
  49 H49            2.4907    11.8429     1.5140 H       
  50 H50            2.4964    12.7702    -0.7645 H       
  51 H51           -1.5372    10.5162     0.9648 H       
  52 H52            2.5300    13.1734    -2.5196 H       
  53 H53            2.1251    11.5355    -3.0879 H       
  54 H54           -0.9654    14.1515    -2.0294 H       
  55 H55            0.7223    14.7036    -1.9005 H       
  56 H56           -0.7470    14.0141    -4.4863 H       
  57 H57           -0.3421    15.6521    -3.9180 H       
  58 H58            1.3014    14.8717    -5.4645 H       
  59 H59            2.7484    13.0360    -4.9765 H       
  60 H60            1.0607    12.4839    -5.1054 H       
  61 H61            3.1859     7.3767    -2.4542 H       
  62 H62            3.2331     8.1775    -4.7782 H       
  63 H63           -0.3157    10.4600    -4.0705 H       
  64 H64           -0.3725     9.6583    -1.7470 H       
  65 H65            0.7169    10.2711    -6.2640 H       
  66 H66            2.0359     7.4832    -7.6421 H       
  67 H67            3.8145     7.5517    -7.6419 H       
  68 H68            2.9337     7.2907    -6.1173 H       
@<TRIPOS>BOND
   1    1    2 am
   2    1   10 1
   3    1   17 1
   4    2    3 1
   5    2   15 2
   6    3    4 2
   7    3   43 1
   8    4    5 1
   9    4   44 1
  10    5    6 ar
  11    5   10 ar
  12    6    7 ar
  13    6   45 1
  14    7    8 ar
  15    8    9 ar
  16    8   14 ar
  17    9   10 ar
  18    9   11 ar
  19   11   12 ar
  20   11   46 1
  21   12   13 ar
  22   12   16 1
  23   13   14 ar
  24   13   47 1
  25   14   48 1
  26   16   29 ar
  27   16   33 ar
  28   17   18 ar
  29   17   22 ar
  30   18   19 ar
  31   18   49 1
  32   19   20 ar
  33   19   50 1
  34   20   21 ar
  35   20   23 1
  36   21   22 ar
  37   21   36 1
  38   22   51 1
  39   23   24 1
  40   23   25 1
  41   24   28 1
  42   24   52 1
  43   24   53 1
  44   25   26 1
  45   25   54 1
  46   25   55 1
  47   26   27 1
  48   26   56 1
  49   26   57 1
  50   27   28 1
  51   27   58 1
  52   28   59 1
  53   28   60 1
  54   29   30 ar
  55   29   61 1
  56   30   31 ar
  57   30   62 1
  58   31   32 ar
  59   31   34 1
  60   32   33 ar
  61   32   63 1
  62   33   64 1
  63   34   40 am
  64   34   65 1
  65   35   40 1
  66   35   66 1
  67   35   67 1
  68   35   68 1
  69   36   37 1
  70   36   38 1
  71   36   39 1
  72   40   41 2
  73   40   42 2

#	End of record

