#	Name: ASD01900826
#	Creating user name:	WinNT
#	Creation time:	15. 06. 2019 19:52

#	Modifying user name:	WinNT
#	Modification time:	15. 06. 2019 19:52

#	Program:	/corina/corina34_cracker 3.40 0067  02.08.2006

@<TRIPOS>MOLECULE
ASD01900826
  41   43    0    0    0
SMALL
NO_CHARGES


@<TRIPOS>ATOM
   1 N1             0.4948     1.4822    -0.2402 N.am    
   2 C2             0.8273     0.1294    -0.3782 C.ar    
   3 C3             2.4733    -1.5765    -0.7452 C.ar    
   4 C4             2.1453    -0.2417    -0.6090 C.ar    
   5 C5            -0.1600    -0.8424    -0.2787 C.ar    
   6 C6             0.1692    -2.1771    -0.4145 C.ar    
   7 C7             1.4868    -2.5467    -0.6506 C.ar    
   8 Cl8           -1.0641    -3.3925    -0.2896 Cl      
   9 C9             1.1227     2.4103    -0.9890 C.2     
  10 C10            0.6993     3.8238    -0.9214 C.ar    
  11 O11            2.0377     2.0841    -1.7202 O.2     
  12 C12            1.2671     4.7729    -1.7875 C.ar    
  13 N13            0.8790     6.0410    -1.7180 N.ar    
  14 C14           -0.0362     6.4038    -0.8377 C.ar    
  15 C15           -0.5966     5.4659     0.0175 C.ar    
  16 N16           -0.2253     4.2032    -0.0439 N.ar    
  17 N17            2.2254     4.3889    -2.7074 N.pl3   
  18 O18            1.8105    -3.8606    -0.7857 O.3     
  19 C19            1.6134    -4.4432    -1.9925 C.ar    
  20 N20            1.0350    -3.7477    -2.9584 N.ar    
  21 N21            2.0087    -5.6925    -2.1785 N.ar    
  22 C22            1.8315    -6.2916    -3.3445 C.ar    
  23 C23            1.2239    -5.5946    -4.3770 C.ar    
  24 C24            0.8274    -4.2862    -4.1488 C.ar    
  25 C25            1.0050    -6.2427    -5.7198 C.3     
  26 C26           -0.3588    -6.9360    -5.7352 C.3     
  27 H27           -0.1904     1.7512     0.3915 H       
  28 H28            3.4984    -1.8648    -0.9251 H       
  29 H29            2.9140     0.5134    -0.6825 H       
  30 H30           -1.1846    -0.5547    -0.0947 H       
  31 H31           -0.3498     7.4358    -0.7830 H       
  32 H32           -1.3445     5.7716     0.7342 H       
  33 H33            2.4187     3.4480    -2.8422 H       
  34 H34            2.7044     5.0604    -3.2178 H       
  35 H35            2.1566    -7.3112    -3.4903 H       
  36 H36            0.3553    -3.7133    -4.9332 H       
  37 H37            1.0345    -5.4817    -6.4996 H       
  38 H38            1.7887    -6.9785    -5.9001 H       
  39 H39           -0.5171    -7.4048    -6.7064 H       
  40 H40           -0.3884    -7.6970    -4.9553 H       
  41 H41           -1.1425    -6.2002    -5.5548 H       
@<TRIPOS>BOND
   1    1    2 1
   2    1    9 am
   3    1   27 1
   4    2    5 ar
   5    2    4 ar
   6    3    4 ar
   7    3    7 ar
   8    3   28 1
   9    4   29 1
  10    5    6 ar
  11    5   30 1
  12    6    7 ar
  13    6    8 1
  14    7   18 1
  15    9   10 1
  16    9   11 2
  17   10   12 ar
  18   10   16 ar
  19   12   13 ar
  20   12   17 1
  21   13   14 ar
  22   14   15 ar
  23   14   31 1
  24   15   16 ar
  25   15   32 1
  26   17   33 1
  27   17   34 1
  28   18   19 1
  29   19   21 ar
  30   19   20 ar
  31   20   24 ar
  32   21   22 ar
  33   22   23 ar
  34   22   35 1
  35   23   24 ar
  36   23   25 1
  37   24   36 1
  38   25   26 1
  39   25   37 1
  40   25   38 1
  41   26   39 1
  42   26   40 1
  43   26   41 1

#	End of record

