#	Name: ASD01912364
#	Creating user name:	WinNT
#	Creation time:	15. 06. 2019 19:59

#	Modifying user name:	WinNT
#	Modification time:	15. 06. 2019 19:59

#	Program:	/corina/corina34_cracker 3.40 0067  02.08.2006

@<TRIPOS>MOLECULE
ASD01912364
  41   43    0    0    0
SMALL
NO_CHARGES


@<TRIPOS>ATOM
   1 C1            -0.1595     1.3986     2.5717 C.ar    
   2 C2            -0.1908     0.0522     2.9464 C.ar    
   3 C3             0.9902    -0.5732     3.3016 C.ar    
   4 C4             2.1666     0.1642     3.2719 C.ar    
   5 C5             2.1266     1.4931     2.8913 C.ar    
   6 N6             0.9897     2.0679     2.5572 N.ar    
   7 C7             3.4021     2.2951     2.8585 C.3     
   8 C8            -1.3724     2.0602     2.1952 C.1     
   9 C9            -2.3668     2.6026     1.8865 C.1     
  10 C10           -3.5797     3.2642     1.5100 C.2     
  11 N11           -3.6743     7.2698     1.5329 N.am    
  12 C12           -4.9480     6.5412     1.5920 C.3     
  13 C13           -4.8257     5.2642     0.7510 C.3     
  14 C14           -3.5552     4.5472     1.1521 C.2     
  15 C15           -2.2562     5.3226     1.1364 C.3     
  16 C16           -2.4429     6.5982     1.9678 C.3     
  17 C17           -3.6352     8.5385     1.0796 C.2     
  18 O18           -4.6385     9.0520     0.6217 O.2     
  19 C19           -1.8967    10.0349     0.0975 C.2     
  20 C20           -2.3799     9.3018     1.1385 C.2     
  21 C21           -1.5311     9.3522     2.3076 C.2     
  22 C22           -0.4497    10.1032     2.1334 C.2     
  23 S23           -0.4252    10.7858     0.5169 S.3     
  24 Cl24           0.7708    10.3723     3.3382 Cl      
  25 Cl25          -2.6709    10.1790    -1.4496 Cl      
  26 H26           -1.1238    -0.4915     2.9587 H       
  27 H27            0.9975    -1.6123     3.5959 H       
  28 H28            3.1049    -0.2963     3.5442 H       
  29 H29            3.8579     2.2126     1.8718 H       
  30 H30            3.1792     3.3410     3.0695 H       
  31 H31            4.0918     1.9117     3.6105 H       
  32 H32           -4.5144     2.7230     1.5162 H       
  33 H33           -5.1707     6.2778     2.6260 H       
  34 H34           -5.7459     7.1670     1.1922 H       
  35 H35           -5.6849     4.6194     0.9358 H       
  36 H36           -4.7821     5.5241    -0.3067 H       
  37 H37           -1.4612     4.7155     1.5693 H       
  38 H38           -1.9992     5.5874     0.1108 H       
  39 H39           -1.5915     7.2615     1.8154 H       
  40 H40           -2.5217     6.3381     3.0234 H       
  41 H41           -1.7539     8.8332     3.2281 H       
@<TRIPOS>BOND
   1    1    2 ar
   2    1    6 ar
   3    1    8 1
   4    2    3 ar
   5    2   26 1
   6    3    4 ar
   7    3   27 1
   8    4    5 ar
   9    4   28 1
  10    5    6 ar
  11    5    7 1
  12    7   29 1
  13    7   30 1
  14    7   31 1
  15    8    9 3
  16    9   10 1
  17   10   14 2
  18   10   32 1
  19   11   12 1
  20   11   16 1
  21   11   17 am
  22   12   13 1
  23   12   33 1
  24   12   34 1
  25   13   14 1
  26   13   35 1
  27   13   36 1
  28   14   15 1
  29   15   16 1
  30   15   37 1
  31   15   38 1
  32   16   39 1
  33   16   40 1
  34   17   18 2
  35   17   20 1
  36   19   20 2
  37   19   23 1
  38   19   25 1
  39   20   21 1
  40   21   22 2
  41   21   41 1
  42   22   23 1
  43   22   24 1

#	End of record

