#	Name: ASD03720005
#	Creating user name:	WinNT
#	Creation time:	15. 06. 2019 20:43

#	Modifying user name:	WinNT
#	Modification time:	15. 06. 2019 20:43

#	Program:	/corina/corina34_cracker 3.40 0067  02.08.2006

@<TRIPOS>MOLECULE
ASD03720005
  74   76    0    0    0
SMALL
NO_CHARGES


@<TRIPOS>ATOM
   1 C1             0.3712     1.8653    -0.0659 C.3     
   2 C2             0.2671     0.3142    -0.1034 C.3     
   3 C3             1.8391     2.1703    -0.1064 C.2     
   4 C4            -0.3608     2.1821     1.2403 C.3     
   5 C5            -1.1876     0.0546     0.2560 C.3     
   6 C6             0.7653    -0.1446    -1.4540 C.3     
   7 C7             2.4472     2.8698     0.8456 C.2     
   8 C8             2.5823     1.6218    -1.3161 C.3     
   9 C9            -1.5887     1.2298     1.1854 C.3     
  10 C10           -2.0546     0.0541    -1.0046 C.3     
  11 C11            2.2758     0.1383    -1.5118 C.3     
  12 C12            3.8907     3.1385     0.7528 C.2     
  13 C13           -1.9292     1.4059    -1.7103 C.3     
  14 C14            4.4806     3.9177     1.6529 C.2     
  15 C15           -2.8240     1.4183    -2.9513 C.3     
  16 C16            5.9812     4.1006     1.6465 C.3     
  17 C17            3.6625     4.6419     2.6977 C.3     
  18 C18           -2.6986     2.7700    -3.6569 C.3     
  19 C19            6.2910     5.6008     1.5645 C.3     
  20 C20            3.9775     6.1409     2.6134 C.3     
  21 C21           -3.5934     2.7825    -4.8980 C.3     
  22 C22            5.4735     6.3201     2.6132 C.2     
  23 O23            5.9463     6.0917     0.2675 O.3     
  24 O24            3.4166     6.8132     3.7427 O.3     
  25 C25           -3.3746     4.0842    -5.6715 C.3     
  26 C26           -3.2412     1.5923    -5.7925 C.3     
  27 O27           -4.9625     2.6898    -4.4990 O.3     
  28 C28            1.1689    -0.2767     0.9822 C.3     
  29 C29           -3.5155    -0.1861    -0.6187 C.3     
  30 C30            6.0552     7.0883     3.5006 C.2     
  31 H31           -0.1385     2.3103    -0.9205 H       
  32 H32            0.2678     1.9527     2.1007 H       
  33 H33           -0.6806     3.2239     1.2609 H       
  34 H34           -1.2840    -0.8956     0.7814 H       
  35 H35            0.5842    -1.2130    -1.5717 H       
  36 H36            0.2550     0.4071    -2.2435 H       
  37 H37            1.8819     3.2412     1.6875 H       
  38 H38            2.2757     2.1721    -2.2056 H       
  39 H39            3.6545     1.7503    -1.1672 H       
  40 H40           -1.8177     0.8563     2.1835 H       
  41 H41           -2.4513     1.7544     0.7745 H       
  42 H42           -1.7209    -0.7380    -1.6749 H       
  43 H43            2.7746    -0.4337    -0.7294 H       
  44 H44            2.6598    -0.1788    -2.4814 H       
  45 H45            4.4708     2.7023    -0.0470 H       
  46 H46           -2.2388     2.2004    -1.0312 H       
  47 H47           -0.8929     1.5656    -2.0079 H       
  48 H48           -2.5145     0.6238    -3.6303 H       
  49 H49           -3.8603     1.2586    -2.6536 H       
  50 H50            6.4039     3.6893     2.5631 H       
  51 H51            6.4083     3.5911     0.7827 H       
  52 H52            2.6013     4.4798     2.5085 H       
  53 H53            3.9214     4.2688     3.6885 H       
  54 H54           -3.0082     3.5645    -2.9779 H       
  55 H55           -1.6623     2.9298    -3.9546 H       
  56 H56            7.3522     5.7660     1.7510 H       
  57 H57            3.5560     6.5523     1.6962 H       
  58 H58            6.1167     7.0358     0.1462 H       
  59 H59            3.5783     7.7665     3.7532 H       
  60 H60           -2.3303     4.1549    -5.9758 H       
  61 H61           -4.0120     4.0931    -6.5556 H       
  62 H62           -3.6255     4.9322    -5.0342 H       
  63 H63           -3.3971     0.6648    -5.2415 H       
  64 H64           -3.8787     1.6011    -6.6767 H       
  65 H65           -2.1969     1.6629    -6.0968 H       
  66 H66           -5.5880     2.6922    -5.2364 H       
  67 H67            0.8078     0.0332     1.9628 H       
  68 H68            1.1521    -1.3646     0.9159 H       
  69 H69            2.1891     0.0802     0.8412 H       
  70 H70           -3.8840     0.6636    -0.0440 H       
  71 H71           -4.1154    -0.3019    -1.5214 H       
  72 H72           -3.5879    -1.0913    -0.0158 H       
  73 H73            7.1280     7.2123     3.4873 H       
  74 H74            5.4619     7.5977     4.2456 H       
@<TRIPOS>BOND
   1    1    2 1
   2    1    3 1
   3    1    4 1
   4    1   31 1
   5    2    5 1
   6    2    6 1
   7    2   28 1
   8    3    7 2
   9    3    8 1
  10    4    9 1
  11    4   32 1
  12    4   33 1
  13    5   10 1
  14    5    9 1
  15    5   34 1
  16    6   11 1
  17    6   35 1
  18    6   36 1
  19    7   12 1
  20    7   37 1
  21    8   11 1
  22    8   38 1
  23    8   39 1
  24    9   40 1
  25    9   41 1
  26   10   13 1
  27   10   29 1
  28   10   42 1
  29   11   43 1
  30   11   44 1
  31   12   14 2
  32   12   45 1
  33   13   15 1
  34   13   46 1
  35   13   47 1
  36   14   16 1
  37   14   17 1
  38   15   18 1
  39   15   48 1
  40   15   49 1
  41   16   19 1
  42   16   50 1
  43   16   51 1
  44   17   20 1
  45   17   52 1
  46   17   53 1
  47   18   21 1
  48   18   54 1
  49   18   55 1
  50   19   22 1
  51   19   23 1
  52   19   56 1
  53   20   24 1
  54   20   22 1
  55   20   57 1
  56   21   25 1
  57   21   26 1
  58   21   27 1
  59   22   30 2
  60   23   58 1
  61   24   59 1
  62   25   60 1
  63   25   61 1
  64   25   62 1
  65   26   63 1
  66   26   64 1
  67   26   65 1
  68   27   66 1
  69   28   67 1
  70   28   68 1
  71   28   69 1
  72   29   70 1
  73   29   71 1
  74   29   72 1
  75   30   73 1
  76   30   74 1

#	End of record

