#	Name: ASD02030372
#	Creating user name:	WinNT
#	Creation time:	15. 06. 2019 20:15

#	Modifying user name:	WinNT
#	Modification time:	15. 06. 2019 20:15

#	Program:	/corina/corina34_cracker 3.40 0067  02.08.2006

@<TRIPOS>MOLECULE
ASD02030372
  53   54    0    0    0
SMALL
NO_CHARGES


@<TRIPOS>ATOM
   1 N1            -0.0865     1.3281    -0.0258 N.am    
   2 C2             0.0910    -0.1316     0.0069 C.3     
   3 C3             1.0732    -0.5274    -1.1007 C.3     
   4 N4             2.3099     0.2521    -0.9557 N.3     
   5 C5             2.0575     1.6888    -1.1288 C.3     
   6 C6             1.1157     2.1755    -0.0223 C.3     
   7 C7            -1.3179     1.8746    -0.0636 C.2     
   8 O8            -2.2959     1.1616    -0.1723 O.2     
   9 O9            -1.4644     3.2104     0.0190 O.3     
  10 C10           -1.2553    -0.8185    -0.2305 C.3     
  11 C11           -1.0650    -2.3364    -0.2050 C.3     
  12 C12           -2.4276    -3.0232    -0.3166 C.3     
  13 C13            3.3410    -0.2177    -1.8907 C.3     
  14 C14            4.4974     0.7486    -1.8902 C.ar    
  15 C15            5.5458     0.5714    -1.0069 C.ar    
  16 C16            6.6066     1.4578    -1.0064 C.ar    
  17 C17            6.6190     2.5212    -1.8895 C.ar    
  18 C18            5.5710     2.6979    -2.7735 C.ar    
  19 C19            4.5124     1.8090    -2.7769 C.ar    
  20 C20           -2.8198     3.7290    -0.0283 C.3     
  21 C21           -3.6269     3.1540     1.1374 C.3     
  22 C22           -2.7860     5.2549     0.0783 C.3     
  23 C23           -3.4748     3.3246    -1.3506 C.3     
  24 H24            0.4918    -0.4301     0.9755 H       
  25 H25            1.3018    -1.5902    -1.0214 H       
  26 H26            0.6262    -0.3227    -2.0736 H       
  27 H27            3.0000     2.2333    -1.0698 H       
  28 H28            1.5968     1.8627    -2.1012 H       
  29 H29            0.8339     3.2115    -0.2107 H       
  30 H30            1.6150     2.0988     0.9436 H       
  31 H31           -1.9551    -0.5268     0.5526 H       
  32 H32           -1.6504    -0.5181    -1.2010 H       
  33 H33           -0.4365    -2.6379    -1.0429 H       
  34 H34           -0.5872    -2.6269     0.7306 H       
  35 H35           -2.2920    -4.1045    -0.2984 H       
  36 H36           -3.0562    -2.7217     0.5214 H       
  37 H37           -2.9054    -2.7326    -1.2522 H       
  38 H38            3.6904    -1.2027    -1.5813 H       
  39 H39            2.9201    -0.2802    -2.8943 H       
  40 H40            5.5361    -0.2595    -0.3170 H       
  41 H41            7.4254     1.3197    -0.3159 H       
  42 H42            7.4474     3.2141    -1.8887 H       
  43 H43            5.5806     3.5290    -3.4632 H       
  44 H44            3.6953     1.9450    -3.4700 H       
  45 H45           -3.1603     3.4422     2.0794 H       
  46 H46           -4.6443     3.5433     1.1019 H       
  47 H47           -3.6509     2.0669     1.0615 H       
  48 H48           -2.2111     5.6645    -0.7522 H       
  49 H49           -3.8035     5.6442     0.0428 H       
  50 H50           -2.3194     5.5430     1.0203 H       
  51 H51           -3.4989     2.2375    -1.4266 H       
  52 H52           -4.4923     3.7139    -1.3861 H       
  53 H53           -2.8999     3.7342    -2.1811 H       
@<TRIPOS>BOND
   1    1    2 1
   2    1    6 1
   3    1    7 am
   4    2    3 1
   5    2   10 1
   6    2   24 1
   7    3    4 1
   8    3   25 1
   9    3   26 1
  10    4    5 1
  11    4   13 1
  12    5    6 1
  13    5   27 1
  14    5   28 1
  15    6   29 1
  16    6   30 1
  17    7    8 2
  18    7    9 1
  19    9   20 1
  20   10   11 1
  21   10   31 1
  22   10   32 1
  23   11   12 1
  24   11   33 1
  25   11   34 1
  26   12   35 1
  27   12   36 1
  28   12   37 1
  29   13   14 1
  30   13   38 1
  31   13   39 1
  32   14   15 ar
  33   14   19 ar
  34   15   16 ar
  35   15   40 1
  36   16   17 ar
  37   16   41 1
  38   17   18 ar
  39   17   42 1
  40   18   19 ar
  41   18   43 1
  42   19   44 1
  43   20   21 1
  44   20   23 1
  45   20   22 1
  46   21   45 1
  47   21   46 1
  48   21   47 1
  49   22   48 1
  50   22   49 1
  51   22   50 1
  52   23   51 1
  53   23   52 1
  54   23   53 1

#	End of record

