#	Name: ASD01916070
#	Creating user name:	WinNT
#	Creation time:	15. 06. 2019 20:06

#	Modifying user name:	WinNT
#	Modification time:	15. 06. 2019 20:06

#	Program:	/corina/corina34_cracker 3.40 0067  02.08.2006

@<TRIPOS>MOLECULE
ASD01916070
  43   45    0    0    0
SMALL
NO_CHARGES


@<TRIPOS>ATOM
   1 C1            -0.0169     1.3970     0.0097 C.ar    
   2 C2             0.0021    -0.0041     0.0020 C.ar    
   3 C3            -1.2091    -0.6764     0.0095 C.ar    
   4 C4            -2.3884     0.0518     0.0242 C.ar    
   5 C5            -3.7083    -0.6754     0.0324 C.3     
   6 C6             1.2061     2.1419     0.0020 C.1     
   7 C7             2.2088     2.7525    -0.0042 C.1     
   8 C8             3.4318     3.4973    -0.0119 C.ar    
   9 C9             3.4027     4.8942    -0.0041 C.ar    
  10 C10            5.8350     3.5558    -0.0289 C.ar    
  11 C11            4.5842     5.6064    -0.0116 C.ar    
  12 N12           -2.3742     1.3707     0.0316 N.ar    
  13 C13           -1.2493     2.0550     0.0192 C.ar    
  14 C14            4.6595     2.8304    -0.0215 C.ar    
  15 C15            5.7970     4.9415    -0.0273 C.ar    
  16 C16           -4.5432    -0.2954    -1.2125 C.3     
  17 C17           -4.5558    -0.2211     1.2003 C.2     
  18 N18           -5.8186     0.0007     0.7965 N.am    
  19 C19           -5.9764    -0.2752    -0.6363 C.3     
  20 O20           -4.1545    -0.0785     2.3358 O.2     
  21 C21           -6.8987     0.4585     1.6740 C.3     
  22 C22           -6.6493    -1.6337    -0.8430 C.3     
  23 C23           -6.7987     0.8306    -1.3010 C.3     
  24 F24            7.0236     2.9138    -0.0443 F       
  25 F25           -1.2405    -2.0270     0.0021 F       
  26 H26            0.9364    -0.5456    -0.0098 H       
  27 H27           -3.5490    -1.7530     0.0704 H       
  28 H28            2.4570     5.4156     0.0074 H       
  29 H29            4.5621     6.6862    -0.0056 H       
  30 H30           -1.2795     3.1345     0.0258 H       
  31 H31            4.6894     1.7508    -0.0227 H       
  32 H32            6.7186     5.5045    -0.0328 H       
  33 H33           -4.2595     0.6881    -1.5871 H       
  34 H34           -4.4469    -1.0509    -1.9923 H       
  35 H35           -6.5149     0.5866     2.6861 H       
  36 H36           -7.2849     1.4101     1.3087 H       
  37 H37           -7.6999    -0.2805     1.6800 H       
  38 H38           -7.6421    -1.6196    -0.3932 H       
  39 H39           -6.7368    -1.8372    -1.9102 H       
  40 H40           -6.0484    -2.4121    -0.3727 H       
  41 H41           -6.3032     1.7903    -1.1538 H       
  42 H42           -6.8862     0.6268    -2.3682 H       
  43 H43           -7.7926     0.8626    -0.8546 H       
@<TRIPOS>BOND
   1    1    2 ar
   2    1    6 1
   3    1   13 ar
   4    2    3 ar
   5    2   26 1
   6    3    4 ar
   7    3   25 1
   8    4   12 ar
   9    4    5 1
  10    5   16 1
  11    5   17 1
  12    5   27 1
  13    6    7 3
  14    7    8 1
  15    8    9 ar
  16    8   14 ar
  17    9   11 ar
  18    9   28 1
  19   10   15 ar
  20   10   24 1
  21   10   14 ar
  22   11   15 ar
  23   11   29 1
  24   12   13 ar
  25   13   30 1
  26   14   31 1
  27   15   32 1
  28   16   19 1
  29   16   33 1
  30   16   34 1
  31   17   18 am
  32   17   20 2
  33   18   19 1
  34   18   21 1
  35   19   22 1
  36   19   23 1
  37   21   35 1
  38   21   36 1
  39   21   37 1
  40   22   38 1
  41   22   39 1
  42   22   40 1
  43   23   41 1
  44   23   42 1
  45   23   43 1

#	End of record

