#	Name: ASD01912687
#	Creating user name:	WinNT
#	Creation time:	15. 06. 2019 20:00

#	Modifying user name:	WinNT
#	Modification time:	15. 06. 2019 20:00

#	Program:	/corina/corina34_cracker 3.40 0067  02.08.2006

@<TRIPOS>MOLECULE
ASD01912687
  46   49    0    0    0
SMALL
NO_CHARGES


@<TRIPOS>ATOM
   1 C1            -0.0165     1.3669     0.0096 C.2     
   2 N2             0.0021    -0.0041     0.0020 N.pl3   
   3 C3            -1.2022    -0.6919     0.0098 C.2     
   4 C4            -2.3629    -0.0495     0.0239 C.2     
   5 N5            -2.4358     1.3307     0.0320 N.am    
   6 C6            -1.3020     2.0667     0.0309 C.2     
   7 C7             1.3015     1.7836    -0.0008 C.2     
   8 C8             2.0550     0.6111    -0.0143 C.2     
   9 N9             1.2243    -0.4045    -0.0118 N.2     
  10 O10           -1.3489     3.2837     0.0379 O.2     
  11 C11           -3.6826     1.9657     0.0469 C.ar    
  12 C12            3.5595     0.5250    -0.0291 C.3     
  13 O13            4.1120     1.8428    -0.0273 O.3     
  14 C14            5.4673     1.9436    -0.0397 C.ar    
  15 C15            6.0711     3.1926    -0.0388 C.ar    
  16 C16            7.4489     3.2924    -0.0514 C.ar    
  17 C17            8.2259     2.1488    -0.0650 C.ar    
  18 C18            7.6265     0.9028    -0.0664 C.ar    
  19 C19            6.2492     0.7977    -0.0476 C.ar    
  20 C20           -4.3137     2.2880    -1.1475 C.ar    
  21 C21           -5.5444     2.9149    -1.1293 C.ar    
  22 C22           -5.5248     2.8968     1.2676 C.ar    
  23 C23           -4.2944     2.2700     1.2564 C.ar    
  24 C24           -6.1478     3.2219     0.0763 C.ar    
  25 C25           -3.6564     1.9546    -2.4619 C.3     
  26 O26           -4.4956     2.3827    -3.5364 O.3     
  27 C27           -3.9619     2.1123    -4.8341 C.3     
  28 H28           -1.1950    -1.7719     0.0039 H       
  29 H29           -3.2785    -0.6223     0.0289 H       
  30 H30            1.6685     2.7994     0.0008 H       
  31 H31            3.9013    -0.0135     0.8548 H       
  32 H32            3.8843    -0.0040    -0.9251 H       
  33 H33            5.4646     4.0862    -0.0285 H       
  34 H34            7.9195     4.2645    -0.0511 H       
  35 H35            9.3029     2.2289    -0.0749 H       
  36 H36            8.2356     0.0111    -0.0778 H       
  37 H37            5.7814    -0.1758    -0.0487 H       
  38 H38           -6.0357     3.1658    -2.0577 H       
  39 H39           -6.0011     3.1333     2.2075 H       
  40 H40           -3.8086     2.0161     2.1869 H       
  41 H41           -7.1098     3.7128     0.0878 H       
  42 H42           -2.6949     2.4639    -2.5268 H       
  43 H43           -3.5023     0.8776    -2.5282 H       
  44 H44           -3.0068     2.6248    -4.9482 H       
  45 H45           -3.8142     1.0385    -4.9496 H       
  46 H46           -4.6578     2.4671    -5.5943 H       
@<TRIPOS>BOND
   1    1    2 1
   2    1    7 2
   3    1    6 1
   4    2    3 1
   5    2    9 1
   6    3    4 2
   7    3   28 1
   8    4    5 1
   9    4   29 1
  10    5    6 am
  11    5   11 1
  12    6   10 2
  13    7    8 1
  14    7   30 1
  15    8    9 2
  16    8   12 1
  17   11   20 ar
  18   11   23 ar
  19   12   13 1
  20   12   31 1
  21   12   32 1
  22   13   14 1
  23   14   15 ar
  24   14   19 ar
  25   15   16 ar
  26   15   33 1
  27   16   17 ar
  28   16   34 1
  29   17   18 ar
  30   17   35 1
  31   18   19 ar
  32   18   36 1
  33   19   37 1
  34   20   21 ar
  35   20   25 1
  36   21   24 ar
  37   21   38 1
  38   22   23 ar
  39   22   24 ar
  40   22   39 1
  41   23   40 1
  42   24   41 1
  43   25   26 1
  44   25   42 1
  45   25   43 1
  46   26   27 1
  47   27   44 1
  48   27   45 1
  49   27   46 1

#	End of record

