#	Name: ASD08178206
#	Creating user name:	WinNT
#	Creation time:	15. 06. 2019 21:18

#	Modifying user name:	WinNT
#	Modification time:	15. 06. 2019 21:18

#	Program:	/corina/corina34_cracker 3.40 0067  02.08.2006

@<TRIPOS>MOLECULE
ASD08178206
  63   66    0    0    0
SMALL
NO_CHARGES


@<TRIPOS>ATOM
   1 C1            -0.0192     1.5027     0.0216 C.ar    
   2 C2             0.0009    -0.0042     0.0178 C.3     
   3 C3            -0.8031    -0.5280     1.2095 C.3     
   4 C4            -0.7827    -2.0578     1.2056 C.3     
   5 C5            -1.5867    -2.5816     2.3973 C.3     
   6 C6            -1.5666    -4.0885     2.3935 C.2     
   7 N7            -0.6917    -4.8423     2.9800 N.2     
   8 N8            -0.8485    -6.0891     2.8588 N.2     
   9 C9            -1.8638    -6.5044     2.1632 C.2     
  10 S10           -2.7346    -5.1426     1.5959 S.3     
  11 N11           -2.1927    -7.8343     1.9235 N.am    
  12 C12           -1.4275    -8.8200     2.4327 C.2     
  13 C13           -1.7839   -10.2611     2.1730 C.3     
  14 O14           -0.4522    -8.5473     3.1000 O.2     
  15 C15           -0.7773   -11.1569     2.8477 C.ar    
  16 C16           -0.9893   -11.5796     4.1467 C.ar    
  17 C17           -0.0659   -12.4013     4.7655 C.ar    
  18 C18            1.0693   -12.8008     4.0853 C.ar    
  19 C19            1.2808   -12.3789     2.7860 C.ar    
  20 C20            0.3553   -11.5607     2.1656 C.ar    
  21 C21            1.1728     2.2124     0.0068 C.ar    
  22 C22            1.1067     3.5973     0.0104 C.ar    
  23 C23           -0.1542     4.1903     0.0288 C.ar    
  24 N24           -1.2377     3.4283     0.0420 N.ar    
  25 N25           -1.1697     2.1466     0.0335 N.ar    
  26 N26           -0.2749     5.5794     0.0336 N.am    
  27 C27           -1.4926     6.1503    -0.0538 C.2     
  28 N28           -1.6193     7.4877     0.0557 N.am    
  29 O29           -2.4768     5.4590    -0.2315 O.2     
  30 C30           -2.9429     8.1083    -0.0394 C.3     
  31 C31           -2.8098     9.6015     0.1145 C.ar    
  32 C32           -2.6122    10.3962    -0.9991 C.ar    
  33 C33           -2.4901    11.7659    -0.8579 C.ar    
  34 C34           -2.5661    12.3409     0.3969 C.ar    
  35 C35           -2.7646    11.5462     1.5104 C.ar    
  36 C36           -2.8911    10.1770     1.3687 C.ar    
  37 H37           -0.4413    -0.3711    -0.9084 H       
  38 H38            1.0306    -0.3540     0.0923 H       
  39 H39           -0.3609    -0.1610     2.1357 H       
  40 H40           -1.8328    -0.1782     1.1350 H       
  41 H41           -1.2250    -2.4248     0.2794 H       
  42 H42            0.2470    -2.4076     1.2801 H       
  43 H43           -1.1445    -2.2147     3.3235 H       
  44 H44           -2.6164    -2.2318     2.3228 H       
  45 H45           -2.9728    -8.0524     1.3898 H       
  46 H46           -2.7777   -10.4670     2.5707 H       
  47 H47           -1.7760   -10.4495     1.0995 H       
  48 H48           -1.8762   -11.2675     4.6781 H       
  49 H49           -0.2312   -12.7309     5.7807 H       
  50 H50            1.7910   -13.4422     4.5691 H       
  51 H51            2.1679   -12.6907     2.2547 H       
  52 H52            0.5206   -11.2310     1.1505 H       
  53 H53            2.1240     1.7012    -0.0069 H       
  54 H54            2.0044     4.1977    -0.0003 H       
  55 H55            0.5176     6.1348     0.1000 H       
  56 H56           -0.8341     8.0392     0.1974 H       
  57 H57           -3.3819     7.8808    -1.0109 H       
  58 H58           -3.5850     7.7174     0.7499 H       
  59 H59           -2.5528     9.9470    -1.9795 H       
  60 H60           -2.3350    12.3868    -1.7279 H       
  61 H61           -2.4700    13.4109     0.5073 H       
  62 H62           -2.8237    11.9954     2.4908 H       
  63 H63           -3.0462     9.5561     2.2387 H       
@<TRIPOS>BOND
   1    1    2 1
   2    1   21 ar
   3    1   25 ar
   4    2    3 1
   5    2   37 1
   6    2   38 1
   7    3    4 1
   8    3   39 1
   9    3   40 1
  10    4    5 1
  11    4   41 1
  12    4   42 1
  13    5    6 1
  14    5   43 1
  15    5   44 1
  16    6    7 2
  17    6   10 1
  18    7    8 1
  19    8    9 2
  20    9   10 1
  21    9   11 1
  22   11   12 am
  23   11   45 1
  24   12   13 1
  25   12   14 2
  26   13   15 1
  27   13   46 1
  28   13   47 1
  29   15   16 ar
  30   15   20 ar
  31   16   17 ar
  32   16   48 1
  33   17   18 ar
  34   17   49 1
  35   18   19 ar
  36   18   50 1
  37   19   20 ar
  38   19   51 1
  39   20   52 1
  40   21   22 ar
  41   21   53 1
  42   22   23 ar
  43   22   54 1
  44   23   24 ar
  45   23   26 1
  46   24   25 ar
  47   26   27 am
  48   26   55 1
  49   27   28 am
  50   27   29 2
  51   28   30 1
  52   28   56 1
  53   30   31 1
  54   30   57 1
  55   30   58 1
  56   31   32 ar
  57   31   36 ar
  58   32   33 ar
  59   32   59 1
  60   33   34 ar
  61   33   60 1
  62   34   35 ar
  63   34   61 1
  64   35   36 ar
  65   35   62 1
  66   36   63 1

#	End of record

