#	Name: ASD01884379
#	Creating user name:	WinNT
#	Creation time:	15. 06. 2019 19:48

#	Modifying user name:	WinNT
#	Modification time:	15. 06. 2019 19:48

#	Program:	/corina/corina34_cracker 3.40 0067  02.08.2006

@<TRIPOS>MOLECULE
ASD01884379
  29   30    0    0    0
SMALL
NO_CHARGES


@<TRIPOS>ATOM
   1 C1             0.0390     1.4405    -0.2931 C.ar    
   2 C2             0.1444     0.1610    -0.8001 C.ar    
   3 N3            -0.8708    -0.4035    -1.4275 N.ar    
   4 C4            -2.0206     0.2235    -1.5971 C.ar    
   5 C5            -2.2041     1.5049    -1.1189 C.ar    
   6 C6            -1.1589     2.1330    -0.4463 C.ar    
   7 O7            -1.3014     3.3932     0.0392 O.3     
   8 C8            -2.5240     3.9789    -0.0553 C.ar    
   9 C9            -3.4554     3.8096     0.9589 C.ar    
  10 C10           -2.8401     4.7516    -1.1634 C.ar    
  11 C11           -4.0835     5.3467    -1.2587 C.ar    
  12 C12           -5.0139     5.1732    -0.2505 C.ar    
  13 C13           -4.6992     4.4067     0.8605 C.ar    
  14 C14            1.4344    -0.6007    -0.6359 C.3     
  15 Br15          -6.7143     5.9897    -0.3838 Br      
  16 C16            1.2029     2.0768     0.4222 C.3     
  17 O17           -0.7226    -1.7179    -1.9332 O.3     
  18 F18           -5.6093     4.2381     1.8446 F       
  19 H19           -2.8271    -0.2724    -2.1166 H       
  20 H20           -3.1468     2.0123    -1.2612 H       
  21 H21           -3.2097     3.2118     1.8242 H       
  22 H22           -2.1143     4.8881    -1.9513 H       
  23 H23           -4.3288     5.9484    -2.1214 H       
  24 H24            1.4066    -1.1658     0.2958 H       
  25 H25            1.5602    -1.2869    -1.4734 H       
  26 H26            2.2692     0.0997    -0.6113 H       
  27 H27            1.8230     2.6116    -0.2972 H       
  28 H28            0.8309     2.7755     1.1714 H       
  29 H29            1.7966     1.3034     0.9096 H       
@<TRIPOS>BOND
   1    1    2 ar
   2    1   16 1
   3    1    6 ar
   4    2    3 ar
   5    2   14 1
   6    3    4 ar
   7    3   17 1
   8    4    5 ar
   9    4   19 1
  10    5    6 ar
  11    5   20 1
  12    6    7 1
  13    7    8 1
  14    8    9 ar
  15    8   10 ar
  16    9   13 ar
  17    9   21 1
  18   10   11 ar
  19   10   22 1
  20   11   12 ar
  21   11   23 1
  22   12   13 ar
  23   12   15 1
  24   13   18 1
  25   14   24 1
  26   14   25 1
  27   14   26 1
  28   16   27 1
  29   16   28 1
  30   16   29 1

#	End of record

