#	Name: ASD01880783
#	Creating user name:	WinNT
#	Creation time:	15. 06. 2019 19:41

#	Modifying user name:	WinNT
#	Modification time:	15. 06. 2019 19:41

#	Program:	/corina/corina34_cracker 3.40 0067  02.08.2006

@<TRIPOS>MOLECULE
ASD01880783
  41   43    0    0    0
SMALL
NO_CHARGES


@<TRIPOS>ATOM
   1 N1            -0.0158     1.3136     0.0093 N.ar    
   2 C2             0.0021    -0.0041     0.0020 C.ar    
   3 N3             1.1319    -0.6827    -0.0124 N.ar    
   4 C4             2.2989    -0.0581    -0.0202 C.ar    
   5 C5             2.3222     1.3269    -0.0130 C.ar    
   6 C6             1.1127     2.0071     0.0022 C.ar    
   7 C7             3.6294     2.0768    -0.0210 C.3     
   8 O8             4.0302     2.3210    -1.3707 O.3     
   9 C9             5.1956     2.9914    -1.5556 C.ar    
  10 C10            5.6445     3.2627    -2.8444 C.ar    
  11 C11            6.8233     3.9413    -3.0301 C.ar    
  12 C12            7.5780     4.3630    -1.9304 C.ar    
  13 C13            7.1223     4.0884    -0.6380 C.ar    
  14 C14            5.9366     3.4115    -0.4574 C.ar    
  15 C15            7.5762     4.3864    -4.2590 C.3     
  16 N16            8.7800     5.0724    -3.7759 N.am    
  17 C17            8.7770     5.0566    -2.4320 C.2     
  18 O18            9.6409     5.5456    -1.7299 O.2     
  19 C19            3.5850    -0.8433    -0.0362 C.3     
  20 C20            7.9251     4.5361     0.5562 C.3     
  21 Cl21           1.0791     3.7428     0.0113 Cl      
  22 C22            9.4574     7.1357    -4.9008 C.3     
  23 C23            9.8150     5.6749    -4.6196 C.3     
  24 H24           -0.9342    -0.5424     0.0084 H       
  25 H25            3.5065     3.0268     0.4991 H       
  26 H26            4.3921     1.4829     0.4827 H       
  27 H27            5.0666     2.9394    -3.6976 H       
  28 H28            5.5849     3.1999     0.5415 H       
  29 H29            7.8541     3.5218    -4.8618 H       
  30 H30            6.9643     5.0717    -4.8456 H       
  31 H31            3.8855    -1.0274    -1.0677 H       
  32 H32            4.3637    -0.2756     0.4732 H       
  33 H33            3.4362    -1.7948     0.4743 H       
  34 H34            7.6076     5.5356     0.8534 H       
  35 H35            7.7647     3.8433     1.3823 H       
  36 H36            8.9836     4.5533     0.2967 H       
  37 H37            9.3926     7.6815    -3.9595 H       
  38 H38           10.2275     7.5840    -5.5285 H       
  39 H39            8.4972     7.1823    -5.4146 H       
  40 H40           10.7752     5.6283    -4.1058 H       
  41 H41            9.8798     5.1291    -5.5609 H       
@<TRIPOS>BOND
   1    1    2 ar
   2    1    6 ar
   3    2    3 ar
   4    2   24 1
   5    3    4 ar
   6    4    5 ar
   7    4   19 1
   8    5    6 ar
   9    5    7 1
  10    6   21 1
  11    7    8 1
  12    7   25 1
  13    7   26 1
  14    8    9 1
  15    9   10 ar
  16    9   14 ar
  17   10   11 ar
  18   10   27 1
  19   11   12 ar
  20   11   15 1
  21   12   13 ar
  22   12   17 1
  23   13   14 ar
  24   13   20 1
  25   14   28 1
  26   15   16 1
  27   15   29 1
  28   15   30 1
  29   16   17 am
  30   16   23 1
  31   17   18 2
  32   19   31 1
  33   19   32 1
  34   19   33 1
  35   20   34 1
  36   20   35 1
  37   20   36 1
  38   22   23 1
  39   22   37 1
  40   22   38 1
  41   22   39 1
  42   23   40 1
  43   23   41 1

#	End of record

