#	Name: ASD01910340
#	Creating user name:	WinNT
#	Creation time:	15. 06. 2019 19:55

#	Modifying user name:	WinNT
#	Modification time:	15. 06. 2019 19:55

#	Program:	/corina/corina34_cracker 3.40 0067  02.08.2006

@<TRIPOS>MOLECULE
ASD01910340
  45   47    0    0    0
SMALL
NO_CHARGES


@<TRIPOS>ATOM
   1 C1             0.0455     1.4280    -0.1282 C.ar    
   2 C2             0.0540    -0.0039    -0.1122 C.1     
   3 C3             0.0610    -1.1778    -0.0990 C.1     
   4 C4             0.0695    -2.6097    -0.0830 C.ar    
   5 C5            -1.0070    -3.3100     0.4732 C.ar    
   6 C6            -0.9982    -4.6755     0.4882 C.ar    
   7 C7             0.0859    -5.3739    -0.0520 C.ar    
   8 C8             1.1617    -4.6749    -0.6079 C.ar    
   9 C9             1.1516    -3.3095    -0.6287 C.ar    
  10 C10            0.0949    -6.8499    -0.0350 C.2     
  11 O11           -0.8644    -7.4685    -0.4537 O.2     
  12 N12            1.1666    -7.5117     0.4446 N.am    
  13 C13            1.1577    -8.9775     0.5451 C.3     
  14 C14            1.5174    -9.3756     1.9800 C.3     
  15 C15            2.8487    -8.7270     2.3665 C.3     
  16 C16            2.7121    -7.2039     2.3076 C.3     
  17 C17            2.3681    -6.7816     0.8711 C.3     
  18 C18            1.1194     2.1301    -0.6832 C.ar    
  19 C19            1.1053     3.5084    -0.6955 C.ar    
  20 C20            0.0293     4.1983    -0.1587 C.ar    
  21 C21           -1.0385     3.5079     0.3935 C.ar    
  22 C22           -1.0394     2.1294     0.4058 C.ar    
  23 F23            0.0215     5.5492    -0.1734 F       
  24 C24            3.2283    -9.1502     3.7870 C.3     
  25 O25            4.5247    -8.6403     4.1054 O.3     
  26 H26           -1.8443    -2.7706     0.8908 H       
  27 H27           -1.8287    -5.2160     0.9177 H       
  28 H28            1.9988    -5.2150    -1.0249 H       
  29 H29            1.9825    -2.7697    -1.0584 H       
  30 H30            0.1651    -9.3547     0.2992 H       
  31 H31            1.8909    -9.3955    -0.1448 H       
  32 H32            0.7359    -9.0345     2.6589 H       
  33 H33            1.6086   -10.4598     2.0448 H       
  34 H34            3.6247    -9.0492     1.6722 H       
  35 H35            1.9193    -6.8833     2.9834 H       
  36 H36            3.6536    -6.7424     2.6056 H       
  37 H37            3.2014    -7.0208     0.2104 H       
  38 H38            2.1723    -5.7097     0.8424 H       
  39 H39            1.9586     1.5937    -1.1010 H       
  40 H40            1.9344     4.0520    -1.1239 H       
  41 H41           -1.8737     4.0511     0.8105 H       
  42 H42           -1.8720     1.5926     0.8360 H       
  43 H43            2.4983    -8.7525     4.4919 H       
  44 H44            3.2400   -10.2383     3.8511 H       
  45 H45            4.8307    -8.8706     4.9933 H       
@<TRIPOS>BOND
   1    1    2 1
   2    1   18 ar
   3    1   22 ar
   4    2    3 3
   5    3    4 1
   6    4    5 ar
   7    4    9 ar
   8    5    6 ar
   9    5   26 1
  10    6    7 ar
  11    6   27 1
  12    7    8 ar
  13    7   10 1
  14    8    9 ar
  15    8   28 1
  16    9   29 1
  17   10   11 2
  18   10   12 am
  19   12   13 1
  20   12   17 1
  21   13   14 1
  22   13   30 1
  23   13   31 1
  24   14   15 1
  25   14   32 1
  26   14   33 1
  27   15   16 1
  28   15   24 1
  29   15   34 1
  30   16   17 1
  31   16   35 1
  32   16   36 1
  33   17   37 1
  34   17   38 1
  35   18   19 ar
  36   18   39 1
  37   19   20 ar
  38   19   40 1
  39   20   21 ar
  40   20   23 1
  41   21   22 ar
  42   21   41 1
  43   22   42 1
  44   24   25 1
  45   24   43 1
  46   24   44 1
  47   25   45 1

#	End of record

