#	Name: ASD01812116
#	Creating user name:	WinNT
#	Creation time:	15. 06. 2019 19:28

#	Modifying user name:	WinNT
#	Modification time:	15. 06. 2019 19:28

#	Program:	/corina/corina34_cracker 3.40 0067  02.08.2006

@<TRIPOS>MOLECULE
ASD01812116
  49   51    0    0    0
SMALL
NO_CHARGES


@<TRIPOS>ATOM
   1 C1            -0.0168     1.3851     0.0097 C.ar    
   2 C2             0.0021    -0.0041     0.0020 C.ar    
   3 C3             1.2069    -0.6766    -0.0130 C.ar    
   4 C4             2.4187     0.0336    -0.0202 C.ar    
   5 C5             2.3935     1.4285    -0.0124 C.ar    
   6 C6             1.1652     2.0920     0.0022 C.ar    
   7 C7             3.6613    -0.7439    -0.0367 C.2     
   8 C8             4.7504     0.7245    -1.5859 C.3     
   9 C9             4.6331     1.9578    -0.7321 C.2     
  10 N10            3.5390     2.2099    -0.0163 N.am    
  11 S11            5.8523     2.9911    -0.6831 S.2     
  12 C12            3.7192    -1.9803     0.8229 C.3     
  13 C13            5.0389    -2.7133     0.5737 C.3     
  14 C14            5.0977    -3.9686     1.4464 C.3     
  15 C15            5.0065    -3.5696     2.9207 C.3     
  16 C16            3.6869    -2.8366     3.1699 C.3     
  17 C17            3.6280    -1.5813     2.2972 C.3     
  18 N18            4.6976    -0.4549    -0.7231 N.2     
  19 C19            3.5930     0.6812    -2.5856 C.3     
  20 C20            3.6423     1.9237    -3.4770 C.3     
  21 C21            3.7145    -0.5736    -3.4525 C.3     
  22 O22           -1.1658    -0.7005     0.0098 O.3     
  23 C23           -2.3750     0.0609     0.0259 C.3     
  24 H24           -0.9598     1.9115     0.0170 H       
  25 H25            1.2182    -1.7565    -0.0190 H       
  26 H26            1.1417     3.1717     0.0074 H       
  27 H27            5.6987     0.7412    -2.1231 H       
  28 H28            3.5436     3.0008     0.5452 H       
  29 H29            2.8860    -2.6367     0.5720 H       
  30 H30            5.1039    -2.9976    -0.4766 H       
  31 H31            5.8721    -2.0570     0.8247 H       
  32 H32            4.2645    -4.6250     1.1955 H       
  33 H33            6.0379    -4.4908     1.2689 H       
  34 H34            5.0485    -4.4639     3.5424 H       
  35 H35            5.8398    -2.9132     3.1716 H       
  36 H36            2.8536    -3.4930     2.9189 H       
  37 H37            3.6219    -2.5523     4.2202 H       
  38 H38            4.4612    -0.9249     2.5481 H       
  39 H39            2.6879    -1.0591     2.4747 H       
  40 H40            2.6467     0.6592    -2.0451 H       
  41 H41            3.5557     2.8177    -2.8594 H       
  42 H42            4.5886     1.9458    -4.0175 H       
  43 H43            2.8177     1.8929    -4.1892 H       
  44 H44            3.6794    -1.4588    -2.8175 H       
  45 H45            2.8899    -0.6044    -4.1647 H       
  46 H46            4.6608    -0.5515    -3.9930 H       
  47 H47           -2.3999     0.6845     0.9195 H       
  48 H48           -2.4175     0.6940    -0.8604 H       
  49 H49           -3.2300    -0.6152     0.0307 H       
@<TRIPOS>BOND
   1    1    2 ar
   2    1    6 ar
   3    1   24 1
   4    2    3 ar
   5    2   22 1
   6    3    4 ar
   7    3   25 1
   8    4    5 ar
   9    4    7 1
  10    5    6 ar
  11    5   10 1
  12    6   26 1
  13    7   12 1
  14    7   18 2
  15    8    9 1
  16    8   18 1
  17    8   19 1
  18    8   27 1
  19    9   10 am
  20    9   11 2
  21   10   28 1
  22   12   13 1
  23   12   17 1
  24   12   29 1
  25   13   14 1
  26   13   30 1
  27   13   31 1
  28   14   15 1
  29   14   32 1
  30   14   33 1
  31   15   16 1
  32   15   34 1
  33   15   35 1
  34   16   17 1
  35   16   36 1
  36   16   37 1
  37   17   38 1
  38   17   39 1
  39   19   20 1
  40   19   21 1
  41   19   40 1
  42   20   41 1
  43   20   42 1
  44   20   43 1
  45   21   44 1
  46   21   45 1
  47   21   46 1
  48   22   23 1
  49   23   47 1
  50   23   48 1
  51   23   49 1

#	End of record

