#	Name: ASD01913512
#	Creating user name:	WinNT
#	Creation time:	15. 06. 2019 20:01

#	Modifying user name:	WinNT
#	Modification time:	15. 06. 2019 20:01

#	Program:	/corina/corina34_cracker 3.40 0067  02.08.2006

@<TRIPOS>MOLECULE
ASD01913512
  38   40    0    0    0
SMALL
NO_CHARGES


@<TRIPOS>ATOM
   1 C1            -1.5096     1.4692    -0.5885 C.ar    
   2 C2            -1.3537     0.0935    -0.7410 C.ar    
   3 C3            -0.7288    -0.3754    -1.8941 C.ar    
   4 N4            -0.3092     0.4964    -2.7959 N.ar    
   5 C5            -0.4758     1.7912    -2.6144 C.ar    
   6 N6            -1.0619     2.2745    -1.5374 N.ar    
   7 C7            -1.6685    -2.1709     0.0543 C.ar    
   8 C8            -0.4080    -2.7557     0.0665 C.ar    
   9 N9            -0.2650    -4.0554    -0.1008 N.ar    
  10 C10           -1.2992    -4.8513    -0.2848 C.ar    
  11 C11           -2.5927    -4.3439    -0.3099 C.ar    
  12 C12           -2.7869    -2.9773    -0.1372 C.ar    
  13 N13           -3.6846    -5.1957    -0.5067 N.am    
  14 C14           -4.7764    -4.7518    -1.1605 C.2     
  15 N15           -1.8118    -0.7931     0.2376 N.pl3   
  16 C16           -5.9693    -5.6166    -1.2791 C.ar    
  17 O17           -4.7800    -3.6403    -1.6527 O.2     
  18 C18           -7.1015    -5.1599    -1.9556 C.ar    
  19 C19           -8.2118    -5.9719    -2.0634 C.ar    
  20 C20           -8.2050    -7.2365    -1.5029 C.ar    
  21 C21           -7.0853    -7.6962    -0.8303 C.ar    
  22 C22           -5.9662    -6.8957    -0.7200 C.ar    
  23 Br23          -7.0869    -9.4264    -0.0673 Br      
  24 C24           -2.4422    -0.2778     1.4555 C.3     
  25 H25           -1.9929     1.8721     0.2893 H       
  26 H26           -0.5886    -1.4349    -2.0494 H       
  27 H27           -0.1215     2.4762    -3.3704 H       
  28 H28            0.4653    -2.1378     0.2144 H       
  29 H29           -1.1394    -5.9111    -0.4180 H       
  30 H30           -3.7798    -2.5528    -0.1514 H       
  31 H31           -3.6560    -6.1059    -0.1725 H       
  32 H32           -7.1086    -4.1727    -2.3935 H       
  33 H33           -9.0885    -5.6192    -2.5863 H       
  34 H34           -9.0768    -7.8679    -1.5898 H       
  35 H35           -5.0933    -7.2550    -0.1953 H       
  36 H36           -3.5165    -0.1842     1.2969 H       
  37 H37           -2.2552    -0.9655     2.2803 H       
  38 H38           -2.0238     0.6997     1.6956 H       
@<TRIPOS>BOND
   1    1    2 ar
   2    1    6 ar
   3    1   25 1
   4    2    3 ar
   5    2   15 1
   6    3    4 ar
   7    3   26 1
   8    4    5 ar
   9    5    6 ar
  10    5   27 1
  11    7    8 ar
  12    7   12 ar
  13    7   15 1
  14    8    9 ar
  15    8   28 1
  16    9   10 ar
  17   10   11 ar
  18   10   29 1
  19   11   12 ar
  20   11   13 1
  21   12   30 1
  22   13   14 am
  23   13   31 1
  24   14   16 1
  25   14   17 2
  26   15   24 1
  27   16   18 ar
  28   16   22 ar
  29   18   19 ar
  30   18   32 1
  31   19   20 ar
  32   19   33 1
  33   20   21 ar
  34   20   34 1
  35   21   22 ar
  36   21   23 1
  37   22   35 1
  38   24   36 1
  39   24   37 1
  40   24   38 1

#	End of record

