#	Name: ASD00731062
#	Creating user name:	WinNT
#	Creation time:	15. 06. 2019 18:37

#	Modifying user name:	WinNT
#	Modification time:	15. 06. 2019 18:37

#	Program:	/corina/corina34_cracker 3.40 0067  02.08.2006

@<TRIPOS>MOLECULE
ASD00731062
 284  288    0    0    0
SMALL
NO_CHARGES


@<TRIPOS>ATOM
   1 C1            -1.8025     3.4869     3.0659 C.2     
   2 O2            -1.5238     2.3119     3.1786 O.2     
   3 N3             0.5067     3.9080     3.6818 N.am    
   4 C4            -0.7245     4.5324     3.1915 C.3     
   5 C5            -0.4655     5.1649     1.8226 C.3     
   6 C6             0.5292     6.3176     1.9734 C.3     
   7 C7             0.1139     4.1119     0.8758 C.3     
   8 C8            -5.2233     3.4273     1.7783 C.2     
   9 O9            -5.1667     4.5836     1.4167 O.2     
  10 N10           -3.0754     3.8572     2.8228 N.am    
  11 C11           -4.1044     2.8388     2.5985 C.3     
  12 C12           -4.6543     2.3642     3.9451 C.3     
  13 C13           -3.5467     1.6551     4.7270 C.3     
  14 C14           -4.0966     1.1805     6.0735 C.3     
  15 N15           -3.0361     0.5015     6.8222 N.pl3   
  16 C16           -3.2971    -0.0137     8.0698 C.2     
  17 N17           -4.4881     0.1019     8.5865 N.2     
  18 N18           -2.3018    -0.6509     8.7724 N.pl3   
  19 C19           -8.6477     2.4810     0.9178 C.2     
  20 O20           -8.6468     1.5528     1.6985 O.2     
  21 N21           -6.2867     2.6688     1.4466 N.am    
  22 C22           -7.3744     3.2409     0.6492 C.3     
  23 C23           -7.0246     3.1407    -0.8369 C.3     
  24 O24           -6.9587     1.7654    -1.2191 O.3     
  25 C25          -11.9488     2.2265    -0.6319 C.2     
  26 O26          -11.6065     2.8742    -1.5984 O.2     
  27 N27           -9.7876     2.8328     0.2906 N.am    
  28 C28          -11.0254     2.0940     0.5518 C.3     
  29 C29          -11.7071     2.6650     1.7968 C.3     
  30 C30          -15.4536     1.7137    -1.3888 C.2     
  31 O31          -15.7441     1.7273    -0.2114 O.2     
  32 N32          -13.1548     1.6251    -0.6163 N.am    
  33 C33          -14.0069     1.6616    -1.8075 C.3     
  34 C34          -13.7639     0.4058    -2.6470 C.3     
  35 C35          -13.9371    -0.8356    -1.7696 C.3     
  36 C36          -15.4038    -0.9658    -1.3540 C.3     
  37 C37          -12.3422     0.4369    -3.2115 C.3     
  38 C38          -18.7241     1.3248    -2.9749 C.2     
  39 O39          -18.2452     0.8147    -3.9655 O.2     
  40 N40          -16.4248     1.7453    -2.3228 N.am    
  41 C41          -17.8232     1.9137    -1.9201 C.3     
  42 C42          -18.1319     3.4037    -1.7597 C.3     
  43 C43          -17.3065     3.9740    -0.6045 C.3     
  44 C44          -17.6152     5.4639    -0.4441 C.3     
  45 N45          -16.8249     6.0100     0.6620 N.pl3   
  46 C46          -16.9359     7.3391     0.9956 C.2     
  47 N47          -17.7443     8.1133     0.3277 N.2     
  48 N48          -16.1942     7.8516     2.0336 N.pl3   
  49 C49          -22.2869     1.4614    -3.7817 C.2     
  50 O50          -22.4962     2.3306    -2.9622 O.2     
  51 N51          -20.0620     1.3650    -2.8174 N.am    
  52 C52          -20.9378     0.7925    -3.8428 C.3     
  53 C53          -21.1009    -0.7083    -3.5943 C.3     
  54 C54          -19.7516    -1.4054    -3.7792 C.3     
  55 C55          -19.9147    -2.9063    -3.5306 C.3     
  56 C56          -18.5653    -3.6034    -3.7156 C.3     
  57 N57          -18.7219    -5.0444    -3.4769 N.3     
  58 C58          -25.6187     0.8163    -5.1404 C.2     
  59 O59          -25.3003    -0.2798    -5.5505 O.2     
  60 N60          -23.2609     1.0935    -4.6376 N.am    
  61 C61          -24.5723     1.7437    -4.5781 C.3     
  62 C62          -24.5397     3.0338    -5.3999 C.3     
  63 C63          -23.5674     4.0242    -4.7559 C.3     
  64 C64          -23.5347     5.3144    -5.5776 C.3     
  65 N65          -22.6037     6.2627    -4.9610 N.pl3   
  66 C66          -22.4074     7.5001    -5.5271 C.2     
  67 N67          -23.0497     7.8295    -6.6125 N.2     
  68 N68          -21.5337     8.3900    -4.9485 N.pl3   
  69 C69          -29.0913     1.1113    -6.2435 C.2     
  70 O70          -29.0742     2.3210    -6.1582 O.2     
  71 N71          -26.9083     1.2050    -5.1877 N.am    
  72 C72          -27.9255     0.3035    -5.7343 C.3     
  73 C73          -28.4055    -0.6490    -4.6373 C.3     
  74 C74          -27.2676    -1.5417    -4.2139 C.2     
  75 C75          -27.0057    -2.7747    -4.6756 C.2     
  76 N76          -25.8918    -3.2768    -4.0595 N.pl3   
  77 C77          -25.3971    -2.3557    -3.1636 C.ar    
  78 C78          -24.3105    -2.3523    -2.2954 C.ar    
  79 C79          -24.0699    -1.2499    -1.5046 C.ar    
  80 C80          -24.9015    -0.1403    -1.5649 C.ar    
  81 C81          -25.9749    -0.1225    -2.4105 C.ar    
  82 C82          -26.2337    -1.2261    -3.2252 C.ar    
  83 C83          -32.5309     0.4252    -7.2740 C.2     
  84 O84          -32.4765    -0.7232    -6.8880 O.2     
  85 N85          -30.1530     0.4895    -6.7937 N.am    
  86 C86          -31.2863     1.2749    -7.2887 C.3     
  87 C87          -31.0008     1.7365    -8.7192 C.3     
  88 C88          -29.8295     2.6846    -8.7168 C.2     
  89 C89          -28.7051     2.5553    -9.4465 C.2     
  90 N90          -27.9106     3.6279    -9.1435 N.pl3   
  91 C91          -28.5777     4.3760    -8.2384 C.2     
  92 N92          -29.7266     3.8084    -7.9918 N.2     
  93 C93          -35.8916     0.6387    -8.6963 C.2     
  94 O94          -35.6058     1.6062    -9.3695 O.2     
  95 N95          -33.7043     0.9416    -7.6898 N.am    
  96 C96          -34.9142     0.1156    -7.6755 C.3     
  97 C97          -35.5513     0.1684    -6.2854 C.3     
  98 C98          -34.6087    -0.4767    -5.2675 C.3     
  99 C99          -35.2458    -0.4240    -3.8775 C.3     
 100 N100         -34.3433    -1.0417    -2.9028 N.pl3   
 101 C101         -34.7050    -1.1105    -1.5782 C.2     
 102 N102         -35.8510    -0.6261    -1.1896 N.2     
 103 N103         -33.8580    -1.6902    -0.6636 N.pl3   
 104 C104         -38.8476     1.6529    -9.2453 C.2     
 105 O105         -38.6539     1.9870    -8.1005 O.2     
 106 N106         -37.0835     0.0314    -8.8611 N.am    
 107 C107         -38.0337     0.5399    -9.8535 C.3     
 108 C108         -38.9651    -0.5911   -10.2941 C.3     
 109 C109         -38.1666    -1.6485   -11.0119 C.2     
 110 C110         -37.9926    -1.7544   -12.3388 C.2     
 111 N111         -37.2073    -2.8386   -12.6214 N.pl3   
 112 C112         -36.8476    -3.4732   -11.4535 C.ar    
 113 C113         -36.0765    -4.5961   -11.1721 C.ar    
 114 C114         -35.8950    -4.9914    -9.8647 C.ar    
 115 C115         -36.4743    -4.2801    -8.8232 C.ar    
 116 C116         -37.2361    -3.1742    -9.0770 C.ar    
 117 C117         -37.4279    -2.7522   -10.3938 C.ar    
 118 O118         -39.7879     2.2730    -9.9755 O.3     
 119 C119           1.4212     4.6473     4.3403 C.2     
 120 O120           1.2249     5.8294     4.5269 O.2     
 121 C121          17.7011     6.7985    13.3695 C.3     
 122 C122          16.4153     7.4506    12.8574 C.3     
 123 C123          15.5564     6.3994    12.1516 C.3     
 124 C124          14.2705     7.0515    11.6396 C.3     
 125 C125          13.4116     6.0003    10.9338 C.3     
 126 C126          12.1258     6.6525    10.4217 C.3     
 127 C127          11.2668     5.6012     9.7160 C.3     
 128 C128           9.9810     6.2534     9.2039 C.3     
 129 C129           9.1220     5.2022     8.4982 C.3     
 130 C130           7.8362     5.8543     7.9861 C.3     
 131 C131           6.9773     4.8031     7.2803 C.3     
 132 C132           5.6914     5.4552     6.7683 C.3     
 133 C133           4.8325     4.4040     6.0625 C.3     
 134 C134           3.5467     5.0561     5.5504 C.3     
 135 C135           2.6877     4.0049     4.8447 C.3     
 136 H136           0.6637     2.9625     3.5326 H       
 137 H137          -1.0454     5.3027     3.8928 H       
 138 H138          -1.4023     5.5443     1.4145 H       
 139 H139           1.4660     5.9382     2.3815 H       
 140 H140           0.7137     6.7682     0.9982 H       
 141 H141           0.1164     7.0678     2.6479 H       
 142 H142           1.0042     3.6707     1.3241 H       
 143 H143          -0.6284     3.3333     0.7003 H       
 144 H144           0.3788     4.5815    -0.0715 H       
 145 H145          -3.3102     4.7979     2.7964 H       
 146 H146          -3.6690     1.9935     2.0656 H       
 147 H147          -5.0093     3.2225     4.5155 H       
 148 H148          -5.4801     1.6729     3.7770 H       
 149 H149          -3.1917     0.7968     4.1566 H       
 150 H150          -2.7209     2.3464     4.8950 H       
 151 H151          -4.4517     2.0388     6.6439 H       
 152 H152          -4.9225     0.4892     5.9055 H       
 153 H153          -2.1497     0.4155     6.4376 H       
 154 H154          -4.6723    -0.2617     9.4668 H       
 155 H155          -1.4155    -0.7369     8.3878 H       
 156 H156          -2.4860    -1.0144     9.6526 H       
 157 H157          -6.3320     1.7440     1.7358 H       
 158 H158          -7.5119     4.2877     0.9203 H       
 159 H159          -7.7910     3.6451    -1.4254 H       
 160 H160          -6.0592     3.6141    -1.0156 H       
 161 H161          -6.7407     1.6261    -2.1508 H       
 162 H162          -9.7884     3.5751    -0.3338 H       
 163 H163         -10.7929     1.0417     0.7152 H       
 164 H164         -12.6281     2.1153     1.9911 H       
 165 H165         -11.0393     2.5692     2.6529 H       
 166 H166         -11.9396     3.7173     1.6334 H       
 167 H167         -13.4587     1.1682     0.1836 H       
 168 H168         -13.7676     2.5456    -2.3985 H       
 169 H169         -14.4802     0.3733    -3.4679 H       
 170 H170         -13.6383    -1.7214    -2.3302 H       
 171 H171         -13.3144    -0.7416    -0.8800 H       
 172 H172         -15.6266    -0.2372    -0.5745 H       
 173 H173         -16.0437    -0.7817    -2.2170 H       
 174 H174         -15.5861    -1.9712    -0.9744 H       
 175 H175         -11.6282     0.5293    -2.3931 H       
 176 H176         -12.1488    -0.4849    -3.7601 H       
 177 H177         -12.2367     1.2886    -3.8836 H       
 178 H178         -16.1977     1.6565    -3.2617 H       
 179 H179         -17.9922     1.4035    -0.9718 H       
 180 H180         -17.8787     3.9284    -2.6809 H       
 181 H181         -19.1930     3.5341    -1.5472 H       
 182 H182         -17.5597     3.4492     0.3167 H       
 183 H183         -16.2454     3.8436    -0.8171 H       
 184 H184         -17.3620     5.9886    -1.3653 H       
 185 H185         -18.6763     5.5943    -0.2316 H       
 186 H186         -16.2233     5.4338     1.1590 H       
 187 H187         -17.8226     9.0511     0.5631 H       
 188 H188         -15.5927     7.2754     2.5306 H       
 189 H189         -16.2726     8.7893     2.2689 H       
 190 H190         -20.4451     1.7731    -2.0252 H       
 191 H191         -20.4975     0.9521    -4.8271 H       
 192 H192         -21.4578    -0.8715    -2.5774 H       
 193 H193         -21.8215    -1.1177    -4.3023 H       
 194 H194         -19.3947    -1.2422    -4.7961 H       
 195 H195         -19.0310    -0.9961    -3.0712 H       
 196 H196         -20.2716    -3.0695    -2.5137 H       
 197 H197         -20.6352    -3.3157    -4.2387 H       
 198 H198         -18.2084    -3.4402    -4.7325 H       
 199 H199         -17.8448    -3.1941    -3.0075 H       
 200 H200         -17.8438    -5.5277    -3.5931 H       
 201 H201         -19.1128    -5.2193    -2.5633 H       
 202 H202         -23.0935     0.3983    -5.2930 H       
 203 H203         -24.8145     1.9790    -3.5418 H       
 204 H204         -24.2112     2.8100    -6.4148 H       
 205 H205         -25.5376     3.4713    -5.4292 H       
 206 H206         -23.8959     4.2481    -3.7410 H       
 207 H207         -22.5694     3.5867    -4.7266 H       
 208 H208         -23.2062     5.0905    -6.5926 H       
 209 H209         -24.5327     5.7518    -5.6069 H       
 210 H210         -22.1258     6.0175    -4.1533 H       
 211 H211         -22.9112     8.7025    -7.0119 H       
 212 H212         -21.0558     8.1448    -4.1408 H       
 213 H213         -21.3953     9.2630    -5.3479 H       
 214 H214         -27.1630     2.0816    -4.8597 H       
 215 H215         -27.4972    -0.2731    -6.5542 H       
 216 H216         -28.7521    -0.0711    -3.7805 H       
 217 H217         -29.2238    -1.2596    -5.0187 H       
 218 H218         -27.5882    -3.2937    -5.4224 H       
 219 H219         -25.5079    -4.1513    -4.2288 H       
 220 H220         -23.6578    -3.2110    -2.2409 H       
 221 H221         -23.2258    -1.2493    -0.8308 H       
 222 H222         -24.6988     0.7157    -0.9383 H       
 223 H223         -26.6179     0.7443    -2.4518 H       
 224 H224         -30.1667    -0.4780    -6.8619 H       
 225 H225         -31.4327     2.1449    -6.6486 H       
 226 H226         -30.7670     0.8717    -9.3402 H       
 227 H227         -31.8785     2.2443    -9.1191 H       
 228 H228         -28.4744     1.7581   -10.1377 H       
 229 H229         -27.0325     3.8157    -9.5103 H       
 230 H230         -28.2212     5.2941    -7.7953 H       
 231 H231         -33.7478     1.8601    -7.9985 H       
 232 H232         -34.6535    -0.9149    -7.9168 H       
 233 H233         -35.7307     1.2069    -6.0072 H       
 234 H234         -36.4973    -0.3728    -6.2986 H       
 235 H235         -34.4293    -1.5152    -5.5458 H       
 236 H236         -33.6627     0.0645    -5.2544 H       
 237 H237         -35.4252     0.6146    -3.5993 H       
 238 H238         -36.1919    -0.9652    -3.8907 H       
 239 H239         -33.4905    -1.4022    -3.1921 H       
 240 H240         -36.1062    -0.6746    -0.2550 H       
 241 H241         -33.0052    -2.0507    -0.9528 H       
 242 H242         -34.1132    -1.7388     0.2710 H       
 243 H243         -37.3121    -0.7424    -8.3227 H       
 244 H244         -37.4883     0.9190   -10.7178 H       
 245 H245         -39.4440    -1.0294    -9.4185 H       
 246 H246         -39.7273    -0.1938   -10.9644 H       
 247 H247         -38.4108    -1.0832   -13.0743 H       
 248 H248         -36.9432    -3.1186   -13.5118 H       
 249 H249         -35.6219    -5.1564   -11.9757 H       
 250 H250         -35.2963    -5.8638    -9.6482 H       
 251 H251         -36.3222    -4.6034    -7.8040 H       
 252 H252         -37.6841    -2.6259    -8.2615 H       
 253 H253         -40.2843     2.9807    -9.5423 H       
 254 H254          17.4505     6.0032    14.0714 H       
 255 H255          18.2559     6.3803    12.5295 H       
 256 H256          18.3131     7.5474    13.8722 H       
 257 H257          15.8606     7.8688    13.6973 H       
 258 H258          16.6659     8.2460    12.1554 H       
 259 H259          16.1111     5.9812    11.3117 H       
 260 H260          15.3058     5.6041    12.8536 H       
 261 H261          13.7158     7.4697    12.4795 H       
 262 H262          14.5211     7.8469    10.9376 H       
 263 H263          13.9663     5.5821    10.0939 H       
 264 H264          13.1610     5.2050    11.6358 H       
 265 H265          11.5710     7.0707    11.2617 H       
 266 H266          12.3764     7.4478     9.7198 H       
 267 H267          11.8216     5.1831     8.8761 H       
 268 H268          11.0162     4.8059    10.4180 H       
 269 H269           9.4262     6.6716    10.0438 H       
 270 H270          10.2316     7.0487     8.5019 H       
 271 H271           9.6768     4.7840     7.6582 H       
 272 H272           8.8714     4.4068     9.2001 H       
 273 H273           7.2815     6.2725     8.8260 H       
 274 H274           8.0868     6.6496     7.2841 H       
 275 H275           7.5320     4.3849     6.4404 H       
 276 H276           6.7267     4.0078     7.9823 H       
 277 H277           5.1367     5.8734     7.6082 H       
 278 H278           5.9420     6.2505     6.0663 H       
 279 H279           5.3872     3.9858     5.2226 H       
 280 H280           4.5819     3.6087     6.7645 H       
 281 H281           2.9919     5.4743     6.3904 H       
 282 H282           3.7973     5.8515     4.8485 H       
 283 H283           2.4371     3.2096     5.5467 H       
 284 H284           3.2425     3.5867     4.0048 H       
@<TRIPOS>BOND
   1    1    2 2
   2    1    4 1
   3    1   10 am
   4    3  119 am
   5    3    4 1
   6    3  136 1
   7    4    5 1
   8    4  137 1
   9    5    6 1
  10    5    7 1
  11    5  138 1
  12    6  139 1
  13    6  140 1
  14    6  141 1
  15    7  142 1
  16    7  143 1
  17    7  144 1
  18    8    9 2
  19    8   11 1
  20    8   21 am
  21   10   11 1
  22   10  145 1
  23   11   12 1
  24   11  146 1
  25   12   13 1
  26   12  147 1
  27   12  148 1
  28   13   14 1
  29   13  149 1
  30   13  150 1
  31   14   15 1
  32   14  151 1
  33   14  152 1
  34   15   16 1
  35   15  153 1
  36   16   17 2
  37   16   18 1
  38   17  154 1
  39   18  155 1
  40   18  156 1
  41   19   20 2
  42   19   22 1
  43   19   27 am
  44   21   22 1
  45   21  157 1
  46   22   23 1
  47   22  158 1
  48   23   24 1
  49   23  159 1
  50   23  160 1
  51   24  161 1
  52   25   26 2
  53   25   28 1
  54   25   32 am
  55   27   28 1
  56   27  162 1
  57   28   29 1
  58   28  163 1
  59   29  164 1
  60   29  165 1
  61   29  166 1
  62   30   31 2
  63   30   33 1
  64   30   40 am
  65   32   33 1
  66   32  167 1
  67   33   34 1
  68   33  168 1
  69   34   35 1
  70   34   37 1
  71   34  169 1
  72   35   36 1
  73   35  170 1
  74   35  171 1
  75   36  172 1
  76   36  173 1
  77   36  174 1
  78   37  175 1
  79   37  176 1
  80   37  177 1
  81   38   39 2
  82   38   41 1
  83   38   51 am
  84   40   41 1
  85   40  178 1
  86   41   42 1
  87   41  179 1
  88   42   43 1
  89   42  180 1
  90   42  181 1
  91   43   44 1
  92   43  182 1
  93   43  183 1
  94   44   45 1
  95   44  184 1
  96   44  185 1
  97   45   46 1
  98   45  186 1
  99   46   47 2
 100   46   48 1
 101   47  187 1
 102   48  188 1
 103   48  189 1
 104   49   50 2
 105   49   52 1
 106   49   60 am
 107   51   52 1
 108   51  190 1
 109   52   53 1
 110   52  191 1
 111   53   54 1
 112   53  192 1
 113   53  193 1
 114   54   55 1
 115   54  194 1
 116   54  195 1
 117   55   56 1
 118   55  196 1
 119   55  197 1
 120   56   57 1
 121   56  198 1
 122   56  199 1
 123   57  200 1
 124   57  201 1
 125   58   59 2
 126   58   61 1
 127   58   71 am
 128   60   61 1
 129   60  202 1
 130   61   62 1
 131   61  203 1
 132   62   63 1
 133   62  204 1
 134   62  205 1
 135   63   64 1
 136   63  206 1
 137   63  207 1
 138   64   65 1
 139   64  208 1
 140   64  209 1
 141   65   66 1
 142   65  210 1
 143   66   67 2
 144   66   68 1
 145   67  211 1
 146   68  212 1
 147   68  213 1
 148   69   70 2
 149   69   72 1
 150   69   85 am
 151   71   72 1
 152   71  214 1
 153   72   73 1
 154   72  215 1
 155   73   74 1
 156   73  216 1
 157   73  217 1
 158   74   75 2
 159   74   82 1
 160   75   76 1
 161   75  218 1
 162   76   77 1
 163   76  219 1
 164   77   78 ar
 165   77   82 ar
 166   78   79 ar
 167   78  220 1
 168   79   80 ar
 169   79  221 1
 170   80   81 ar
 171   80  222 1
 172   81   82 ar
 173   81  223 1
 174   83   84 2
 175   83   86 1
 176   83   95 am
 177   85   86 1
 178   85  224 1
 179   86   87 1
 180   86  225 1
 181   87   88 1
 182   87  226 1
 183   87  227 1
 184   88   89 2
 185   88   92 1
 186   89   90 1
 187   89  228 1
 188   90   91 1
 189   90  229 1
 190   91   92 2
 191   91  230 1
 192   93   94 2
 193   93   96 1
 194   93  106 am
 195   95   96 1
 196   95  231 1
 197   96   97 1
 198   96  232 1
 199   97   98 1
 200   97  233 1
 201   97  234 1
 202   98   99 1
 203   98  235 1
 204   98  236 1
 205   99  100 1
 206   99  237 1
 207   99  238 1
 208  100  101 1
 209  100  239 1
 210  101  102 2
 211  101  103 1
 212  102  240 1
 213  103  241 1
 214  103  242 1
 215  104  105 2
 216  104  107 1
 217  104  118 1
 218  106  107 1
 219  106  243 1
 220  107  108 1
 221  107  244 1
 222  108  109 1
 223  108  245 1
 224  108  246 1
 225  109  110 2
 226  109  117 1
 227  110  111 1
 228  110  247 1
 229  111  112 1
 230  111  248 1
 231  112  113 ar
 232  112  117 ar
 233  113  114 ar
 234  113  249 1
 235  114  115 ar
 236  114  250 1
 237  115  116 ar
 238  115  251 1
 239  116  117 ar
 240  116  252 1
 241  118  253 1
 242  119  120 2
 243  119  135 1
 244  121  122 1
 245  121  254 1
 246  121  255 1
 247  121  256 1
 248  122  123 1
 249  122  257 1
 250  122  258 1
 251  123  124 1
 252  123  259 1
 253  123  260 1
 254  124  125 1
 255  124  261 1
 256  124  262 1
 257  125  126 1
 258  125  263 1
 259  125  264 1
 260  126  127 1
 261  126  265 1
 262  126  266 1
 263  127  128 1
 264  127  267 1
 265  127  268 1
 266  128  129 1
 267  128  269 1
 268  128  270 1
 269  129  130 1
 270  129  271 1
 271  129  272 1
 272  130  131 1
 273  130  273 1
 274  130  274 1
 275  131  132 1
 276  131  275 1
 277  131  276 1
 278  132  133 1
 279  132  277 1
 280  132  278 1
 281  133  134 1
 282  133  279 1
 283  133  280 1
 284  134  135 1
 285  134  281 1
 286  134  282 1
 287  135  283 1
 288  135  284 1

#	End of record

