#	Name: ASD03082090
#	Creating user name:	WinNT
#	Creation time:	15. 06. 2019 20:27

#	Modifying user name:	WinNT
#	Modification time:	15. 06. 2019 20:27

#	Program:	/corina/corina34_cracker 3.40 0067  02.08.2006

@<TRIPOS>MOLECULE
ASD03082090
  77   80    0    0    0
SMALL
NO_CHARGES


@<TRIPOS>ATOM
   1 C1            -0.0176     1.4478     0.0100 C.3     
   2 O2             0.0021    -0.0041     0.0020 O.3     
   3 C3            -1.1901    -0.6321     0.0100 C.2     
   4 C4            -1.2473    -2.1054     0.0027 C.ar    
   5 O5            -2.2179     0.0157     0.0233 O.2     
   6 C6            -0.0682    -2.8542    -0.0126 C.ar    
   7 C7            -0.1286    -4.2314    -0.0190 C.ar    
   8 C8            -1.3536    -4.8776    -0.0103 C.ar    
   9 C9            -2.5275    -4.1501     0.0044 C.ar    
  10 C10           -2.4861    -2.7636     0.0168 C.ar    
  11 C11            1.4178     1.9774    -0.0009 C.3     
  12 C12            2.0960     1.5891    -1.3176 C.3     
  13 C13            3.5108     2.1738    -1.3457 C.3     
  14 C14            3.4332     3.6929    -1.1776 C.3     
  15 N15            2.7773     4.0127     0.0968 N.3     
  16 C16            1.4008     3.5022     0.1283 C.3     
  17 N17           -3.6720    -2.0264     0.0316 N.am    
  18 C18            2.8087     5.4582     0.3568 C.3     
  19 C19           -4.2797    -1.6543     1.1650 C.2     
  20 C20           -5.5313    -0.8745     0.8260 C.3     
  21 C21           -5.5418    -0.8604    -0.7162 C.3     
  22 C22           -4.2919    -1.6288    -1.0864 C.2     
  23 C23           -6.7727    -1.5872     1.3664 C.3     
  24 O24           -3.8892    -1.9029     2.2854 O.2     
  25 O25           -3.9154    -1.8548    -2.2163 O.2     
  26 C26            1.9534     6.1825    -0.6846 C.3     
  27 O27            0.5856     5.7997    -0.5273 O.3     
  28 C28           -0.3030     6.4232    -1.4566 C.3     
  29 C29           -1.4836     5.4912    -1.7371 C.3     
  30 C30           -2.2290     5.2053    -0.4320 C.3     
  31 C31           -2.7453     6.5189     0.1587 C.3     
  32 C32           -1.5648     7.4508     0.4393 C.3     
  33 C33           -0.8194     7.7367    -0.8659 C.3     
  34 O34           -2.0470     8.6776     0.9910 O.3     
  35 O35           -3.3316     4.3349    -0.6940 O.3     
  36 C36           -2.1355     8.6785     2.4172 C.3     
  37 C37           -3.6724     3.4827     0.4013 C.3     
  38 H38           -0.5448     1.8089    -0.8731 H       
  39 H39           -0.5278     1.7993     0.9068 H       
  40 H40            0.8894    -2.3549    -0.0198 H       
  41 H41            0.7837    -4.8092    -0.0311 H       
  42 H42           -1.3911    -5.9569    -0.0153 H       
  43 H43           -3.4788    -4.6614     0.0104 H       
  44 H44            1.9708     1.5470     0.8341 H       
  45 H45            2.1491     0.5030    -1.3936 H       
  46 H46            1.5211     1.9860    -2.1543 H       
  47 H47            4.0972     1.7471    -0.5319 H       
  48 H48            3.9837     1.9368    -2.2988 H       
  49 H49            4.4399     4.1108    -1.1828 H       
  50 H50            2.8584     4.1203    -1.9992 H       
  51 H51            0.8355     3.9305    -0.6994 H       
  52 H52            0.9313     3.7816     1.0715 H       
  53 H53            2.4137     5.6568     1.3531 H       
  54 H54            3.8365     5.8161     0.2955 H       
  55 H55           -5.4691     0.1405     1.2185 H       
  56 H56           -6.4313    -1.3611    -1.0984 H       
  57 H57           -5.4847     0.1616    -1.0909 H       
  58 H58           -6.7084    -1.6557     2.4523 H       
  59 H59           -7.6641    -1.0241     1.0899 H       
  60 H60           -6.8299    -2.5895     0.9418 H       
  61 H61            2.0474     7.2596    -0.5465 H       
  62 H62            2.2932     5.9133    -1.6847 H       
  63 H63            0.2280     6.6269    -2.3864 H       
  64 H64           -2.1614     5.9668    -2.4460 H       
  65 H65           -1.1157     4.5554    -2.1580 H       
  66 H66           -1.5512     4.7298     0.2769 H       
  67 H67           -3.4232     6.9944    -0.5501 H       
  68 H68           -3.2764     6.3152     1.0886 H       
  69 H69           -0.8870     6.9753     1.1482 H       
  70 H70            0.0217     8.4006    -0.6660 H       
  71 H71           -1.4972     8.2123    -1.5748 H       
  72 H72           -2.5093     9.6442     2.7575 H       
  73 H73           -2.8169     7.8911     2.7395 H       
  74 H74           -1.1478     8.5008     2.8427 H       
  75 H75           -4.5179     2.8537     0.1228 H       
  76 H76           -2.8183     2.8534     0.6515 H       
  77 H77           -3.9410     4.0910     1.2650 H       
@<TRIPOS>BOND
   1    1    2 1
   2    1   11 1
   3    1   38 1
   4    1   39 1
   5    2    3 1
   6    3    4 1
   7    3    5 2
   8    4    6 ar
   9    4   10 ar
  10    6    7 ar
  11    6   40 1
  12    7    8 ar
  13    7   41 1
  14    8    9 ar
  15    8   42 1
  16    9   10 ar
  17    9   43 1
  18   10   17 1
  19   11   12 1
  20   11   16 1
  21   11   44 1
  22   12   13 1
  23   12   45 1
  24   12   46 1
  25   13   14 1
  26   13   47 1
  27   13   48 1
  28   14   15 1
  29   14   49 1
  30   14   50 1
  31   15   16 1
  32   15   18 1
  33   16   51 1
  34   16   52 1
  35   17   19 am
  36   17   22 am
  37   18   26 1
  38   18   53 1
  39   18   54 1
  40   19   20 1
  41   19   24 2
  42   20   21 1
  43   20   23 1
  44   20   55 1
  45   21   22 1
  46   21   56 1
  47   21   57 1
  48   22   25 2
  49   23   58 1
  50   23   59 1
  51   23   60 1
  52   26   27 1
  53   26   61 1
  54   26   62 1
  55   27   28 1
  56   28   29 1
  57   28   33 1
  58   28   63 1
  59   29   30 1
  60   29   64 1
  61   29   65 1
  62   30   31 1
  63   30   35 1
  64   30   66 1
  65   31   32 1
  66   31   67 1
  67   31   68 1
  68   32   33 1
  69   32   34 1
  70   32   69 1
  71   33   70 1
  72   33   71 1
  73   34   36 1
  74   35   37 1
  75   36   72 1
  76   36   73 1
  77   36   74 1
  78   37   75 1
  79   37   76 1
  80   37   77 1

#	End of record

