#	Name: ASD01882850
#	Creating user name:	WinNT
#	Creation time:	15. 06. 2019 19:45

#	Modifying user name:	WinNT
#	Modification time:	15. 06. 2019 19:45

#	Program:	/corina/corina34_cracker 3.40 0067  02.08.2006

@<TRIPOS>MOLECULE
ASD01882850
  50   53    0    0    0
SMALL
NO_CHARGES


@<TRIPOS>ATOM
   1 C1            -0.0145     1.3772     0.1280 C.ar    
   2 C2             0.0049    -0.0027     0.1584 C.ar    
   3 C3             1.2104    -0.6803     0.1433 C.ar    
   4 C4             2.4027     0.0198     0.0971 C.ar    
   5 C5             2.3949     1.3994     0.0664 C.ar    
   6 C6             1.1832     2.0873     0.0814 C.ar    
   7 C7             1.1685     3.5709     0.0480 C.ar    
   8 C8             2.3687     4.2801     0.0014 C.ar    
   9 C9             2.3594     5.6613    -0.0293 C.ar    
  10 C10            1.1636     6.3500    -0.0141 C.ar    
  11 C11           -0.0469     5.6514     0.0320 C.ar    
  12 C12           -0.0414     4.2553     0.0574 C.ar    
  13 S13            3.9340    -0.8517     0.0782 S.o2    
  14 O14            4.9139     0.0481     0.5776 O.2     
  15 O15            3.6791    -2.1236     0.6584 O.2     
  16 O16            4.2887    -1.1076    -1.3796 O.3     
  17 C17           -1.3235     6.3856     0.0487 C.2     
  18 C18           -1.3047     7.8865     0.1722 C.3     
  19 N19           -2.4227     5.7301    -0.0477 N.2     
  20 C20           -1.9114     8.4691    -1.0791 C.2     
  21 C21           -3.6762     6.2513    -0.0142 C.ar    
  22 N22           -3.1728     8.1975    -1.4147 N.am    
  23 C23           -4.0457     7.4272    -0.6651 C.ar    
  24 C24           -5.3655     7.8729    -0.5743 C.ar    
  25 C25           -4.6399     5.5439     0.7250 C.ar    
  26 C26           -5.9351     6.0001     0.8041 C.ar    
  27 C27           -6.2983     7.1700     0.1570 C.ar    
  28 O28           -1.2447     9.1931    -1.7880 O.2     
  29 C29           -6.9575     5.2309     1.6003 C.3     
  30 C30           -7.7182     7.6677     0.2423 C.3     
  31 F31           -7.8432     8.8494    -0.4961 F       
  32 F32           -8.5839     6.6993    -0.2773 F       
  33 F33           -8.0456     7.9166     1.5795 F       
  34 H34           -0.9565     1.9053     0.1357 H       
  35 H35           -0.9230    -0.5542     0.1945 H       
  36 H36            1.2210    -1.7600     0.1680 H       
  37 H37            3.3263     1.9450     0.0311 H       
  38 H38            3.3084     3.7478    -0.0103 H       
  39 H39            3.2922     6.2045    -0.0649 H       
  40 H40            1.1626     7.4297    -0.0376 H       
  41 H41           -0.9729     3.7097     0.0889 H       
  42 H42            5.1203    -1.5851    -1.5041 H       
  43 H43           -1.8887     8.1915     1.0406 H       
  44 H44           -0.2770     8.2339     0.2790 H       
  45 H45           -3.5047     8.5679    -2.2475 H       
  46 H46           -5.6588     8.7795    -1.0827 H       
  47 H47           -4.3610     4.6338     1.2352 H       
  48 H48           -6.9612     5.5895     2.6296 H       
  49 H49           -7.9445     5.3765     1.1613 H       
  50 H50           -6.7063     4.1703     1.5860 H       
@<TRIPOS>BOND
   1    1    2 ar
   2    1    6 ar
   3    1   34 1
   4    2    3 ar
   5    2   35 1
   6    3    4 ar
   7    3   36 1
   8    4    5 ar
   9    4   13 1
  10    5    6 ar
  11    5   37 1
  12    6    7 1
  13    7    8 ar
  14    7   12 ar
  15    8    9 ar
  16    8   38 1
  17    9   10 ar
  18    9   39 1
  19   10   11 ar
  20   10   40 1
  21   11   12 ar
  22   11   17 1
  23   12   41 1
  24   13   14 2
  25   13   15 2
  26   13   16 1
  27   16   42 1
  28   17   18 1
  29   17   19 2
  30   18   20 1
  31   18   43 1
  32   18   44 1
  33   19   21 1
  34   20   22 am
  35   20   28 2
  36   21   25 ar
  37   21   23 ar
  38   22   23 1
  39   22   45 1
  40   23   24 ar
  41   24   27 ar
  42   24   46 1
  43   25   26 ar
  44   25   47 1
  45   26   27 ar
  46   26   29 1
  47   27   30 1
  48   29   48 1
  49   29   49 1
  50   29   50 1
  51   30   31 1
  52   30   32 1
  53   30   33 1

#	End of record

