#	Name: ASD03090955
#	Creating user name:	WinNT
#	Creation time:	15. 06. 2019 20:29

#	Modifying user name:	WinNT
#	Modification time:	15. 06. 2019 20:29

#	Program:	/corina/corina34_cracker 3.40 0067  02.08.2006

@<TRIPOS>MOLECULE
ASD03090955
  51   55    0    0    0
SMALL
NO_CHARGES


@<TRIPOS>ATOM
   1 N1            -0.0175     1.3432    -0.0860 N.am    
   2 C2             0.0012    -0.0044    -0.0679 C.2     
   3 O3             1.0649    -0.5993    -0.0775 O.2     
   4 N4            -1.1464    -0.6880    -0.0394 N.2     
   5 C5             1.2409     2.0928    -0.1173 C.3     
   6 C6             2.5836     2.2793    -3.9011 C.ar    
   7 C7             1.8022     3.4044    -3.6171 C.ar    
   8 C8             1.6174     4.3673    -4.6331 C.ar    
   9 C9             2.2125     4.1594    -5.8577 C.ar    
  10 C10            2.9728     3.0183    -6.0619 C.ar    
  11 N11            3.1348     2.1319    -5.1069 N.ar    
  12 C12            1.2920     3.3830    -2.2568 C.2     
  13 C13            1.6486     2.3304    -1.5485 C.2     
  14 S14            2.6522     1.2387    -2.4832 S.3     
  15 S15            0.2595    -3.0387    -0.0302 S.3     
  16 C16           -1.1280    -2.0187    -0.0215 C.2     
  17 N17           -2.1987    -2.8518     0.0077 N.pl3   
  18 C18           -1.9391    -4.1884     0.0221 C.2     
  19 C19           -0.6633    -4.5510     0.0062 C.2     
  20 O20           -7.3741    -0.8848     0.0781 O.3     
  21 C21           -8.4123    -1.7492    -0.3960 C.3     
  22 C22           -8.2087    -3.1342     0.2329 C.3     
  23 O23           -6.9212    -3.6205    -0.1616 O.3     
  24 C24           -5.8806    -2.7488    -0.0610 C.ar    
  25 C25           -6.1064    -1.3819     0.0568 C.ar    
  26 C26           -4.5831    -3.2357    -0.0763 C.ar    
  27 C27           -3.5113    -2.3592     0.0230 C.ar    
  28 C28           -3.7397    -0.9950     0.1377 C.ar    
  29 C29           -5.0330    -0.5092     0.1545 C.ar    
  30 F30           -8.2679    -3.0328     1.6270 F       
  31 F31           -9.2025    -4.0087    -0.2198 F       
  32 F32           -9.6595    -1.2390    -0.0199 F       
  33 F33           -8.3434    -1.8491    -1.7897 F       
  34 C34           -0.1141    -5.9542     0.0171 C.3     
  35 C35           -1.2961     2.0582    -0.0806 C.3     
  36 H36            1.1060     3.0502     0.3858 H       
  37 H37            2.0170     1.5211     0.3915 H       
  38 H38            1.0208     5.2495    -4.4536 H       
  39 H39            2.0874     4.8796    -6.6528 H       
  40 H40            3.4390     2.8555    -7.0224 H       
  41 H41            0.6688     4.1692    -1.8569 H       
  42 H42           -2.7344    -4.9188     0.0454 H       
  43 H43           -4.4058    -4.2972    -0.1662 H       
  44 H44           -2.9060    -0.3127     0.2139 H       
  45 H45           -5.2085     0.5527     0.2435 H       
  46 H46            0.9752    -5.9182    -0.0005 H       
  47 H47           -0.4460    -6.4673     0.9197 H       
  48 H48           -0.4741    -6.4922    -0.8598 H       
  49 H49           -1.6010     2.2495     0.9483 H       
  50 H50           -1.1850     3.0052    -0.6087 H       
  51 H51           -2.0536     1.4519    -0.5772 H       
@<TRIPOS>BOND
   1    1    2 am
   2    1    5 1
   3    1   35 1
   4    2    3 2
   5    2    4 1
   6    4   16 2
   7    5   13 1
   8    5   36 1
   9    5   37 1
  10    6    7 ar
  11    6   11 ar
  12    6   14 1
  13    7    8 ar
  14    7   12 1
  15    8    9 ar
  16    8   38 1
  17    9   10 ar
  18    9   39 1
  19   10   11 ar
  20   10   40 1
  21   12   13 2
  22   12   41 1
  23   13   14 1
  24   15   16 1
  25   15   19 1
  26   16   17 1
  27   17   18 1
  28   17   27 1
  29   18   19 2
  30   18   42 1
  31   19   34 1
  32   20   21 1
  33   20   25 1
  34   21   22 1
  35   21   32 1
  36   21   33 1
  37   22   23 1
  38   22   30 1
  39   22   31 1
  40   23   24 1
  41   24   25 ar
  42   24   26 ar
  43   25   29 ar
  44   26   27 ar
  45   26   43 1
  46   27   28 ar
  47   28   29 ar
  48   28   44 1
  49   29   45 1
  50   34   46 1
  51   34   47 1
  52   34   48 1
  53   35   49 1
  54   35   50 1
  55   35   51 1

#	End of record

