#	Name: ASD01813047
#	Creating user name:	WinNT
#	Creation time:	15. 06. 2019 19:29

#	Modifying user name:	WinNT
#	Modification time:	15. 06. 2019 19:29

#	Program:	/corina/corina34_cracker 3.40 0067  02.08.2006

@<TRIPOS>MOLECULE
ASD01813047
  61   64    0    0    0
SMALL
NO_CHARGES


@<TRIPOS>ATOM
   1 C1            -1.9066     1.4014     0.0373 C.2     
   2 C2            -2.0105     0.0627     0.0826 C.2     
   3 N3            -0.9003    -0.7284    -0.0086 N.pl3   
   4 C4             0.3412    -0.2442    -0.1330 C.2     
   5 C5             0.5525     1.1197    -0.1787 C.2     
   6 C6            -0.6215     1.9978    -0.0941 C.2     
   7 O7            -0.4971     3.2118    -0.1282 O.2     
   8 C8            -1.0779    -2.1820     0.0326 C.3     
   9 C9            -0.8981    -2.6702     1.4469 C.ar    
  10 C10           -3.0930     2.3253     0.1127 C.3     
  11 C11           -4.3118     1.5968     0.6747 C.3     
  12 C12           -4.4910     0.2908    -0.1092 C.3     
  13 C13           -3.3354    -0.6415     0.2445 C.3     
  14 C14           -2.0039    -2.8622     2.2554 C.ar    
  15 C15           -1.8450    -3.3091     3.5515 C.ar    
  16 C16           -0.5678    -3.5670     4.0452 C.ar    
  17 C17            0.5426    -3.3719     3.2263 C.ar    
  18 C18            0.3717    -2.9300     1.9300 C.ar    
  19 C19           -0.3907    -4.0473     5.4380 C.ar    
  20 C20            0.8865    -4.3052     5.9316 C.ar    
  21 C21            1.0455    -4.7518     7.2279 C.ar    
  22 C22           -0.0603    -4.9438     8.0364 C.ar    
  23 C23           -1.3306    -4.6898     7.5513 C.ar    
  24 C24           -1.5006    -4.2366     6.2588 C.ar    
  25 O25           -2.7745     3.4316     0.9592 O.3     
  26 C26            0.1195    -5.4321     9.4507 C.3     
  27 C27            0.2786    -4.2331    10.3878 C.3     
  28 C28           -1.0180    -3.4211    10.4017 C.3     
  29 C29            0.5852    -4.7287    11.8024 C.3     
  30 C30            1.9087     1.6746    -0.3122 C.2     
  31 O31            2.8659     0.9291    -0.3843 O.2     
  32 O32            2.0895     3.0095    -0.3545 O.3     
  33 H33            1.1797    -0.9217    -0.1976 H       
  34 H34           -2.0795    -2.4356    -0.3148 H       
  35 H35           -0.3386    -2.6568    -0.6124 H       
  36 H36           -3.3246     2.6941    -0.8865 H       
  37 H37           -4.1531     1.3739     1.7298 H       
  38 H38           -5.1986     2.2200     0.5591 H       
  39 H39           -5.4371    -0.1758     0.1653 H       
  40 H40           -4.4803     0.4998    -1.1790 H       
  41 H41           -3.3621    -1.5111    -0.4121 H       
  42 H42           -3.4430    -0.9700     1.2783 H       
  43 H43           -2.9934    -2.6616     1.8719 H       
  44 H44           -2.7090    -3.4584     4.1821 H       
  45 H45            1.5348    -3.5703     3.6039 H       
  46 H46            1.2316    -2.7784     1.2944 H       
  47 H47            1.7506    -4.1563     5.3010 H       
  48 H48            2.0350    -4.9520     7.6115 H       
  49 H49           -2.1905    -4.8418     8.1868 H       
  50 H50           -2.4928    -4.0382     5.8812 H       
  51 H51           -3.4927     4.0718     1.0567 H       
  52 H52           -0.7537    -6.0126     9.7484 H       
  53 H53            1.0094    -6.0589     9.5083 H       
  54 H54            1.0973    -3.6045    10.0376 H       
  55 H55           -0.9047    -2.5669    11.0693 H       
  56 H56           -1.2365    -3.0680     9.3938 H       
  57 H57           -1.8367    -4.0498    10.7518 H       
  58 H58            1.5089    -5.3072    11.7925 H       
  59 H59            0.6986    -3.8746    12.4700 H       
  60 H60           -0.2335    -5.3574    12.1526 H       
  61 H61            2.9986     3.3269    -0.4429 H       
@<TRIPOS>BOND
   1    1    2 2
   2    1   10 1
   3    1    6 1
   4    2    3 1
   5    2   13 1
   6    3    4 1
   7    3    8 1
   8    4    5 2
   9    4   33 1
  10    5    6 1
  11    5   30 1
  12    6    7 2
  13    8    9 1
  14    8   34 1
  15    8   35 1
  16    9   14 ar
  17    9   18 ar
  18   10   11 1
  19   10   25 1
  20   10   36 1
  21   11   12 1
  22   11   37 1
  23   11   38 1
  24   12   13 1
  25   12   39 1
  26   12   40 1
  27   13   41 1
  28   13   42 1
  29   14   15 ar
  30   14   43 1
  31   15   16 ar
  32   15   44 1
  33   16   17 ar
  34   16   19 1
  35   17   18 ar
  36   17   45 1
  37   18   46 1
  38   19   20 ar
  39   19   24 ar
  40   20   21 ar
  41   20   47 1
  42   21   22 ar
  43   21   48 1
  44   22   23 ar
  45   22   26 1
  46   23   24 ar
  47   23   49 1
  48   24   50 1
  49   25   51 1
  50   26   27 1
  51   26   52 1
  52   26   53 1
  53   27   28 1
  54   27   29 1
  55   27   54 1
  56   28   55 1
  57   28   56 1
  58   28   57 1
  59   29   58 1
  60   29   59 1
  61   29   60 1
  62   30   31 2
  63   30   32 1
  64   32   61 1

#	End of record

