#	Name: ASD03491012
#	Creating user name:	WinNT
#	Creation time:	15. 06. 2019 20:42

#	Modifying user name:	WinNT
#	Modification time:	15. 06. 2019 20:42

#	Program:	/corina/corina34_cracker 3.40 0067  02.08.2006

@<TRIPOS>MOLECULE
ASD03491012
  68   71    0    0    0
SMALL
NO_CHARGES


@<TRIPOS>ATOM
   1 C1            -0.2982     1.0348    -0.4552 C.ar    
   2 C2            -0.3676    -0.3195    -0.1589 C.ar    
   3 C3             0.8019    -1.0473     0.0377 C.ar    
   4 C4             2.0358    -0.4129    -0.0638 C.ar    
   5 C5             2.0947     0.9432    -0.3608 C.ar    
   6 C6             0.9306     1.6611    -0.5550 C.ar    
   7 C7             1.0000     3.1318    -0.8764 C.3     
   8 N8             3.2155    -1.1390     0.1333 N.am    
   9 C9             4.3268    -0.8199    -0.5592 C.2     
  10 O10            4.2820     0.0378    -1.4177 O.2     
  11 C11            6.8443    -1.0806    -0.9228 C.ar    
  12 C12            8.0834    -1.8467    -0.7646 C.ar    
  13 C13            9.2554    -1.3953    -1.4139 C.ar    
  14 C14            9.2063    -0.2190    -2.1978 C.ar    
  15 C15            8.0215     0.4873    -2.3300 C.ar    
  16 C16            6.8603     0.0741    -1.7117 C.ar    
  17 C17            8.1272    -3.0082     0.0120 C.ar    
  18 C18            9.3012    -3.6940     0.1351 C.ar    
  19 C19           10.4557    -3.2518    -0.5022 C.ar    
  20 C20           10.4451    -2.1231    -1.2674 C.ar    
  21 C21            2.4638     3.5740    -0.9281 C.3     
  22 C22            0.3414     3.3889    -2.2332 C.3     
  23 C23            0.2653     3.9255     0.2058 C.3     
  24 C24            5.6102    -1.5195    -0.2716 C.2     
  25 O25            5.6318    -2.4552     0.5044 O.2     
  26 N26           10.3481     0.2293    -2.8359 N.pl3   
  27 C27           10.2537     0.8433    -4.0763 C.ar    
  28 C28           11.4043     1.2308    -4.7650 C.ar    
  29 C29           11.2576     1.8383    -5.9973 C.ar    
  30 N30           10.0393     2.0318    -6.4816 N.ar    
  31 C31            8.9723     1.6542    -5.8063 C.ar    
  32 N32            9.0658     1.0672    -4.6307 N.ar    
  33 N33           -1.6123    -0.9519    -0.0576 N.am    
  34 S34           -2.8666    -0.4713    -1.0262 S.o2    
  35 O35           -3.9108    -1.3876    -0.7277 O.2     
  36 O36           -3.0087     0.9159    -0.7528 O.2     
  37 C37           -2.2579    -0.7280    -2.7157 C.3     
  38 O38            0.7389    -2.3751     0.3288 O.3     
  39 C39            0.7471    -3.2823    -0.7752 C.3     
  40 H40           -1.2053     1.5994    -0.6123 H       
  41 H41            3.0520     1.4368    -0.4398 H       
  42 H42            3.2335    -1.8720     0.7683 H       
  43 H43            8.0070     1.3833    -2.9329 H       
  44 H44            5.9545     0.6487    -1.8367 H       
  45 H45            7.2374    -3.3608     0.5121 H       
  46 H46            9.3340    -4.5913     0.7354 H       
  47 H47           11.3731    -3.8106    -0.3901 H       
  48 H48           11.3485    -1.7908    -1.7572 H       
  49 H49            2.9872     3.0085    -1.6990 H       
  50 H50            2.5140     4.6377    -1.1605 H       
  51 H51            2.9330     3.3908     0.0386 H       
  52 H52           -0.7015     3.0739    -2.1964 H       
  53 H53            0.3916     4.4527    -2.4657 H       
  54 H54            0.8648     2.8234    -3.0042 H       
  55 H55            0.7345     3.7423     1.1724 H       
  56 H56            0.3155     4.9893    -0.0267 H       
  57 H57           -0.7775     3.6105     0.2426 H       
  58 H58           11.2150     0.1144    -2.4163 H       
  59 H59           12.3847     1.0604    -4.3451 H       
  60 H60           12.1252     2.1519    -6.5589 H       
  61 H61            7.9942     1.8275    -6.2302 H       
  62 H62           -1.7401    -1.6718     0.5799 H       
  63 H63           -2.0143    -1.7809    -2.8580 H       
  64 H64           -3.0287    -0.4339    -3.4281 H       
  65 H65           -1.3652    -0.1235    -2.8760 H       
  66 H66            0.6927    -4.3060    -0.4046 H       
  67 H67           -0.1112    -3.0820    -1.4165 H       
  68 H68            1.6660    -3.1511    -1.3465 H       
@<TRIPOS>BOND
   1    1    2 ar
   2    1    6 ar
   3    1   40 1
   4    2    3 ar
   5    2   33 1
   6    3    4 ar
   7    3   38 1
   8    4    5 ar
   9    4    8 1
  10    5    6 ar
  11    5   41 1
  12    6    7 1
  13    7   21 1
  14    7   22 1
  15    7   23 1
  16    8    9 am
  17    8   42 1
  18    9   10 2
  19    9   24 1
  20   11   12 ar
  21   11   16 ar
  22   11   24 1
  23   12   13 ar
  24   12   17 ar
  25   13   14 ar
  26   13   20 ar
  27   14   15 ar
  28   14   26 1
  29   15   16 ar
  30   15   43 1
  31   16   44 1
  32   17   18 ar
  33   17   45 1
  34   18   19 ar
  35   18   46 1
  36   19   20 ar
  37   19   47 1
  38   20   48 1
  39   21   49 1
  40   21   50 1
  41   21   51 1
  42   22   52 1
  43   22   53 1
  44   22   54 1
  45   23   55 1
  46   23   56 1
  47   23   57 1
  48   24   25 2
  49   26   27 1
  50   26   58 1
  51   27   28 ar
  52   27   32 ar
  53   28   29 ar
  54   28   59 1
  55   29   30 ar
  56   29   60 1
  57   30   31 ar
  58   31   32 ar
  59   31   61 1
  60   33   34 am
  61   33   62 1
  62   34   35 2
  63   34   36 2
  64   34   37 1
  65   37   63 1
  66   37   64 1
  67   37   65 1
  68   38   39 1
  69   39   66 1
  70   39   67 1
  71   39   68 1

#	End of record

