#	Name: ASD03091187
#	Creating user name:	WinNT
#	Creation time:	15. 06. 2019 20:30

#	Modifying user name:	WinNT
#	Modification time:	15. 06. 2019 20:30

#	Program:	/corina/corina34_cracker 3.40 0067  02.08.2006

@<TRIPOS>MOLECULE
ASD03091187
  64   68    0    0    0
SMALL
NO_CHARGES


@<TRIPOS>ATOM
   1 C1             0.4546     1.8829     0.0113 C.2     
   2 C2             0.2064     0.3965    -0.0008 C.3     
   3 O3             1.5904     2.3080     0.0150 O.2     
   4 N4            -0.5857     2.7398     0.0124 N.am    
   5 C5            -0.3444     4.1848     0.0241 C.3     
   6 C6            -1.5469     4.9076    -0.5863 C.3     
   7 C7            -0.1436     4.6566     1.4656 C.3     
   8 N8             3.2176    -1.2993     1.2486 N.2     
   9 C9             2.0753    -0.6662     1.1789 C.2     
  10 N10            1.4883    -0.3126    -0.0062 N.am    
  11 C11            2.0851    -0.6147    -1.1828 C.2     
  12 C12            3.3704    -1.3271    -1.1286 C.ar    
  13 C13            4.0619    -1.6821    -2.2844 C.ar    
  14 C14            5.2686    -2.3523    -2.1747 C.ar    
  15 C15            5.7883    -2.6703    -0.9197 C.ar    
  16 C16            5.1218    -2.3293     0.2217 C.ar    
  17 C17            3.9014    -1.6512     0.1408 C.ar    
  18 O18            1.5769    -0.3086    -2.2457 O.2     
  19 C19            1.3867    -0.3152     2.4382 C.ar    
  20 C20            0.1535    -0.8938     2.7485 C.ar    
  21 C21           -0.4844    -0.5604     3.9283 C.ar    
  22 C22            0.0967     0.3442     4.8003 C.ar    
  23 C23            1.3175     0.9202     4.4973 C.ar    
  24 C24            1.9681     0.5916     3.3260 C.ar    
  25 Cl25          -0.5758    -2.0279     1.6549 Cl      
  26 Cl26          -2.0172    -1.2768     4.3171 Cl      
  27 N27            7.2156    -2.3312    -5.9880 N.3     
  28 C28            5.8633    -2.8799    -5.8041 C.3     
  29 C29            5.2285    -2.3305    -4.5361 C.3     
  30 N30            5.9701    -2.7129    -3.3285 N.3     
  31 C31            7.3138    -2.1176    -3.3355 C.3     
  32 C32            8.3242    -3.0945    -3.9180 C.3     
  33 C33            8.2125    -3.2507    -5.4212 C.3     
  34 C34            7.4124    -0.9596    -5.5704 C.3     
  35 C35            7.2656    -0.7887    -4.0673 C.3     
  36 H36           -0.3605     0.1156     0.8868 H       
  37 H37           -0.3600     0.1300    -0.8931 H       
  38 H38           -1.4941     2.3998     0.0053 H       
  39 H39            0.5487     4.4088    -0.5593 H       
  40 H40           -2.4400     4.6836    -0.0029 H       
  41 H41           -1.3674     5.9827    -0.5775 H       
  42 H42           -1.6899     4.5714    -1.6132 H       
  43 H43           -1.0367     4.4326     2.0490 H       
  44 H44            0.7130     4.1416     1.9005 H       
  45 H45            0.0359     5.7317     1.4744 H       
  46 H46            3.6607    -1.4373    -3.2568 H       
  47 H47            6.7305    -3.1936    -0.8503 H       
  48 H48            5.5364    -2.5830     1.1862 H       
  49 H49           -0.4055     0.6017     5.7211 H       
  50 H50            1.7649     1.6255     5.1821 H       
  51 H51            2.9235     1.0387     3.0941 H       
  52 H52            5.2463    -2.6092    -6.6609 H       
  53 H53            5.9230    -3.9660    -5.7343 H       
  54 H54            5.1954    -1.2429    -4.6004 H       
  55 H55            4.2092    -2.7090    -4.4590 H       
  56 H56            7.5972    -1.9128    -2.3031 H       
  57 H57            9.3278    -2.7446    -3.6766 H       
  58 H58            8.1757    -4.0693    -3.4534 H       
  59 H59            7.9228    -4.2758    -5.6519 H       
  60 H60            9.1829    -3.0461    -5.8733 H       
  61 H61            8.4114    -0.6398    -5.8666 H       
  62 H62            6.6781    -0.3287    -6.0712 H       
  63 H63            6.3127    -0.3030    -3.8573 H       
  64 H64            8.0730    -0.1539    -3.7024 H       
@<TRIPOS>BOND
   1    1    2 1
   2    1    3 2
   3    1    4 am
   4    2   10 1
   5    2   36 1
   6    2   37 1
   7    4    5 1
   8    4   38 1
   9    5    6 1
  10    5    7 1
  11    5   39 1
  12    6   40 1
  13    6   41 1
  14    6   42 1
  15    7   43 1
  16    7   44 1
  17    7   45 1
  18    8    9 2
  19    8   17 1
  20    9   10 1
  21    9   19 1
  22   10   11 am
  23   11   12 1
  24   11   18 2
  25   12   13 ar
  26   12   17 ar
  27   13   14 ar
  28   13   46 1
  29   14   15 ar
  30   14   30 1
  31   15   16 ar
  32   15   47 1
  33   16   17 ar
  34   16   48 1
  35   19   20 ar
  36   19   24 ar
  37   20   21 ar
  38   20   25 1
  39   21   22 ar
  40   21   26 1
  41   22   23 ar
  42   22   49 1
  43   23   24 ar
  44   23   50 1
  45   24   51 1
  46   27   28 1
  47   27   33 1
  48   27   34 1
  49   28   29 1
  50   28   52 1
  51   28   53 1
  52   29   30 1
  53   29   54 1
  54   29   55 1
  55   30   31 1
  56   31   32 1
  57   31   35 1
  58   31   56 1
  59   32   33 1
  60   32   57 1
  61   32   58 1
  62   33   59 1
  63   33   60 1
  64   34   35 1
  65   34   61 1
  66   34   62 1
  67   35   63 1
  68   35   64 1

#	End of record

