#	Name: ASD01560028
#	Creating user name:	WinNT
#	Creation time:	15. 06. 2019 19:22

#	Modifying user name:	WinNT
#	Modification time:	15. 06. 2019 19:22

#	Program:	/corina/corina34_cracker 3.40 0067  02.08.2006

@<TRIPOS>MOLECULE
ASD01560028
  38   41    0    0    0
SMALL
NO_CHARGES


@<TRIPOS>ATOM
   1 F1             0.0021    -0.0041     0.0020 F       
   2 C2            -0.0162     1.3468     0.0094 C.ar    
   3 C3             1.1752     2.0538     0.0019 C.ar    
   4 C4             1.1610     3.4335     0.0090 C.ar    
   5 C5            -0.0538     4.1157     0.0238 C.ar    
   6 C6            -1.2497     3.4007     0.0313 C.ar    
   7 C7            -1.2265     2.0212     0.0188 C.ar    
   8 C8            -0.0739     5.5997     0.0319 C.2     
   9 C9            -1.2255     6.4040     0.0468 C.2     
  10 C10           -0.8140     7.7186     0.0501 C.2     
  11 N11            0.5586     7.7157     0.0375 N.am    
  12 N12            0.9851     6.3830     0.0321 N.2     
  13 C13            1.2267     8.8863     0.0372 C.2     
  14 O14            2.4423     8.8963     0.0257 O.2     
  15 N15            0.5392    10.0462     0.0493 N.am    
  16 C16           -0.8344    10.0340     0.0619 C.2     
  17 N17           -1.4899     8.8943     0.0619 N.2     
  18 S18           -1.7234    11.5552     0.0776 S.3     
  19 C19           -3.4209    10.9271     0.0901 C.3     
  20 C20           -4.3850    12.0853     0.1047 C.2     
  21 N21           -4.5792    12.8045     1.2538 N.am    
  22 C22           -5.4376    13.8402     1.2771 C.2     
  23 O23           -5.5952    14.4649     2.3083 O.2     
  24 N24           -6.1242    14.1950     0.1751 N.am    
  25 C25           -5.9616    13.5126    -0.9764 C.2     
  26 O26           -6.5829    13.8330    -1.9736 O.2     
  27 C27           -5.0575    12.4227    -1.0168 C.2     
  28 Cl28          -4.8264    11.5254    -2.4848 Cl      
  29 H29            2.1164     1.5243    -0.0092 H       
  30 H30            2.0903     3.9839     0.0034 H       
  31 H31           -2.1935     3.9256     0.0431 H       
  32 H32           -2.1530     1.4662     0.0247 H       
  33 H33           -2.2476     6.0551     0.0543 H       
  34 H34            1.0156    10.8912     0.0495 H       
  35 H35           -3.5915    10.3236    -0.8014 H       
  36 H36           -3.5752    10.3147     0.9784 H       
  37 H37           -4.0936    12.5648     2.0585 H       
  38 H38           -6.7389    14.9446     0.2096 H       
@<TRIPOS>BOND
   1    1    2 1
   2    2    3 ar
   3    2    7 ar
   4    3    4 ar
   5    3   29 1
   6    4    5 ar
   7    4   30 1
   8    5    6 ar
   9    5    8 1
  10    6    7 ar
  11    6   31 1
  12    7   32 1
  13    8    9 1
  14    8   12 2
  15    9   10 2
  16    9   33 1
  17   10   11 1
  18   10   17 1
  19   11   12 1
  20   11   13 am
  21   13   14 2
  22   13   15 am
  23   15   16 1
  24   15   34 1
  25   16   17 2
  26   16   18 1
  27   18   19 1
  28   19   20 1
  29   19   35 1
  30   19   36 1
  31   20   21 1
  32   20   27 2
  33   21   22 am
  34   21   37 1
  35   22   23 2
  36   22   24 am
  37   24   25 am
  38   24   38 1
  39   25   26 2
  40   25   27 1
  41   27   28 1

#	End of record

