#	Name: ASD01917713
#	Creating user name:	WinNT
#	Creation time:	15. 06. 2019 20:09

#	Modifying user name:	WinNT
#	Modification time:	15. 06. 2019 20:09

#	Program:	/corina/corina34_cracker 3.40 0067  02.08.2006

@<TRIPOS>MOLECULE
ASD01917713
  43   46    0    0    0
SMALL
NO_CHARGES


@<TRIPOS>ATOM
   1 C1            -0.0188     1.5379     0.0105 C.3     
   2 C2             0.0021    -0.0041     0.0020 C.3     
   3 C3            -1.1828    -0.4060     0.8502 C.2     
   4 N4            -1.6140     0.6413     1.5702 N.am    
   5 C5            -0.8242     1.8487     1.3018 C.3     
   6 C6            -2.7365     0.5859     2.5099 C.3     
   7 O7            -1.6731    -1.5149     0.8763 O.2     
   8 C8             1.2821    -0.5157     0.6111 C.ar    
   9 N9             2.0828    -1.2641    -0.1220 N.ar    
  10 C10            3.2150    -1.7342     0.3709 C.ar    
  11 C11            3.5575    -1.4251     1.6938 C.ar    
  12 C12            2.6759    -0.6267     2.4342 C.ar    
  13 N13            1.5675    -0.1959     1.8581 N.ar    
  14 C14            4.7709    -1.9163     2.2745 C.1     
  15 C15            5.7656    -2.3190     2.7506 C.1     
  16 C16            6.9789    -2.8101     3.3313 C.ar    
  17 C17            7.8458    -3.6049     2.5776 C.ar    
  18 C18            9.0149    -4.0747     3.1448 C.ar    
  19 C19            9.3266    -3.7588     4.4576 C.ar    
  20 C20            8.4712    -2.9719     5.2082 C.ar    
  21 C21            7.3038    -2.4916     4.6527 C.ar    
  22 C22           -1.7792     3.0021     0.9436 C.3     
  23 C23           -1.5350     3.3383    -0.5414 C.3     
  24 C24           -0.9156     2.0396    -1.1445 C.3     
  25 H25           -0.1694     2.0964     2.1372 H       
  26 H26            0.9770     1.9810     0.0034 H       
  27 H27           -0.1131    -0.3802    -1.0145 H       
  28 F28            9.8553    -4.8436     2.4184 F       
  29 H29           -3.1492    -0.4228     2.5239 H       
  30 H30           -2.3878     0.8497     3.5084 H       
  31 H31           -3.5077     1.2897     2.1966 H       
  32 H32            3.8654    -2.3469    -0.2357 H       
  33 H33            2.8983    -0.3680     3.4589 H       
  34 H34            7.6028    -3.8518     1.5547 H       
  35 H35           10.2412    -4.1289     4.8969 H       
  36 H36            8.7202    -2.7300     6.2309 H       
  37 H37            6.6378    -1.8773     5.2405 H       
  38 H38           -2.8130     2.6889     1.0897 H       
  39 H39           -1.5618     3.8720     1.5633 H       
  40 H40           -2.4749     3.5820    -1.0368 H       
  41 H41           -0.8286     4.1632    -0.6345 H       
  42 H42           -0.3349     2.2676    -2.0383 H       
  43 H43           -1.6922     1.3068    -1.3636 H       
@<TRIPOS>BOND
   1    1    2 1
   2    1   26 1
   3    1    5 1
   4    1   24 1
   5    2    3 1
   6    2    8 1
   7    2   27 1
   8    3    4 am
   9    3    7 2
  10    4    5 1
  11    4    6 1
  12    5   22 1
  13    5   25 1
  14    6   29 1
  15    6   30 1
  16    6   31 1
  17    8    9 ar
  18    8   13 ar
  19    9   10 ar
  20   10   11 ar
  21   10   32 1
  22   11   12 ar
  23   11   14 1
  24   12   13 ar
  25   12   33 1
  26   14   15 3
  27   15   16 1
  28   16   17 ar
  29   16   21 ar
  30   17   18 ar
  31   17   34 1
  32   18   19 ar
  33   18   28 1
  34   19   20 ar
  35   19   35 1
  36   20   21 ar
  37   20   36 1
  38   21   37 1
  39   22   23 1
  40   22   38 1
  41   22   39 1
  42   23   24 1
  43   23   40 1
  44   23   41 1
  45   24   42 1
  46   24   43 1

#	End of record

