#	Name: ASD01411122
#	Creating user name:	WinNT
#	Creation time:	15. 06. 2019 19:19

#	Modifying user name:	WinNT
#	Modification time:	15. 06. 2019 19:19

#	Program:	/corina/corina34_cracker 3.40 0067  02.08.2006

@<TRIPOS>MOLECULE
ASD01411122
  61   64    0    0    0
SMALL
NO_CHARGES


@<TRIPOS>ATOM
   1 C1            -0.1804     1.6238     0.3406 C.3     
   2 C2            -0.2234     0.0938     0.2169 C.3     
   3 O3             1.1743     2.0717     0.2422 O.3     
   4 C4             0.8311    -0.4737     1.1336 C.2     
   5 C5             1.9878     1.7476     1.3766 C.3     
   6 C6             1.8336     0.2720     1.6612 C.2     
   7 C7             1.0012    -1.8193     1.6179 C.ar    
   8 C8             1.5281     2.5582     2.5901 C.3     
   9 N9             2.6268    -0.5124     2.4477 N.pl3   
  10 C10            0.2766    -3.0133     1.4117 C.ar    
  11 C11            2.1525    -1.7947     2.4475 C.ar    
  12 C12            0.7543    -4.1555     2.0651 C.ar    
  13 C13            2.5983    -2.9514     3.0814 C.ar    
  14 C14            1.8754    -4.1157     2.8689 C.ar    
  15 C15            2.3817     2.1871     3.8044 C.3     
  16 C16            3.4526     2.0646     1.0689 C.3     
  17 N17            3.6135     3.5106     0.8968 N.am    
  18 C18            4.7996     4.0929     1.1620 C.2     
  19 O19            5.7356     3.4187     1.5439 O.2     
  20 O20            4.9475     5.4218     1.0037 O.3     
  21 C21            6.2286     7.4692     1.0742 C.ar    
  22 C22            5.8789     8.3248     2.1021 C.ar    
  23 C23            5.8623     9.6905     1.8892 C.ar    
  24 C24            6.1959    10.2007     0.6485 C.ar    
  25 C25            6.5465     9.3452    -0.3791 C.ar    
  26 C26            6.5617     7.9794    -0.1667 C.ar    
  27 C27            6.2526     5.9807     1.3080 C.3     
  28 C28           -0.8868    -3.0538     0.5778 C.1     
  29 N29           -1.8098    -3.0860    -0.0837 N.1     
  30 C30            3.8192    -2.9386     3.9647 C.3     
  31 C31            1.9904     3.0693     4.9916 C.3     
  32 C32            3.8640     1.3591    -0.1976 C.2     
  33 O33            4.2518     1.9985    -1.1466 O.2     
  34 O34            3.7996     0.0204    -0.2713 O.3     
  35 H35           -0.7698     2.0699    -0.4605 H       
  36 H36           -0.5927     1.9221     1.3046 H       
  37 H37           -1.2062    -0.2729     0.5134 H       
  38 H38           -0.0145    -0.1991    -0.8120 H       
  39 H39            1.6387     3.6219     2.3795 H       
  40 H40            0.4817     2.3362     2.8000 H       
  41 H41            3.4090    -0.2065     2.9330 H       
  42 H42            0.2317    -5.0920     1.9372 H       
  43 H43            2.2021    -5.0254     3.3506 H       
  44 H44            2.2156     1.1404     4.0591 H       
  45 H45            3.4348     2.3410     3.5689 H       
  46 H46            4.0789     1.7251     1.8939 H       
  47 H47            2.8663     4.0488     0.5919 H       
  48 H48            5.6182     7.9262     3.0714 H       
  49 H49            5.5884    10.3589     2.6921 H       
  50 H50            6.1823    11.2677     0.4820 H       
  51 H51            6.8064     9.7438    -1.3487 H       
  52 H52            6.8349     7.3110    -0.9697 H       
  53 H53            6.4994     5.7806     2.3507 H       
  54 H54            7.0030     5.5236     0.6629 H       
  55 H55            3.5233    -2.7177     4.9903 H       
  56 H56            4.3040    -3.9142     3.9286 H       
  57 H57            4.5133    -2.1748     3.6142 H       
  58 H58            2.1565     4.1160     4.7368 H       
  59 H59            0.9373     2.9154     5.2271 H       
  60 H60            2.5986     2.8050     5.8567 H       
  61 H61            4.0740    -0.3871    -1.1042 H       
@<TRIPOS>BOND
   1    1    2 1
   2    1    3 1
   3    1   35 1
   4    1   36 1
   5    2    4 1
   6    2   37 1
   7    2   38 1
   8    3    5 1
   9    4    6 2
  10    4    7 1
  11    5    8 1
  12    5   16 1
  13    5    6 1
  14    6    9 1
  15    7   10 ar
  16    7   11 ar
  17    8   15 1
  18    8   39 1
  19    8   40 1
  20    9   11 1
  21    9   41 1
  22   10   12 ar
  23   10   28 1
  24   11   13 ar
  25   12   14 ar
  26   12   42 1
  27   13   14 ar
  28   13   30 1
  29   14   43 1
  30   15   31 1
  31   15   44 1
  32   15   45 1
  33   16   17 1
  34   16   32 1
  35   16   46 1
  36   17   18 am
  37   17   47 1
  38   18   19 2
  39   18   20 1
  40   20   27 1
  41   21   22 ar
  42   21   26 ar
  43   21   27 1
  44   22   23 ar
  45   22   48 1
  46   23   24 ar
  47   23   49 1
  48   24   25 ar
  49   24   50 1
  50   25   26 ar
  51   25   51 1
  52   26   52 1
  53   27   53 1
  54   27   54 1
  55   28   29 3
  56   30   55 1
  57   30   56 1
  58   30   57 1
  59   31   58 1
  60   31   59 1
  61   31   60 1
  62   32   33 2
  63   32   34 1
  64   34   61 1

#	End of record

