#	Name: ASD00170059
#	Creating user name:	WinNT
#	Creation time:	15. 06. 2019 18:31

#	Modifying user name:	WinNT
#	Modification time:	15. 06. 2019 18:31

#	Program:	/corina/corina34_cracker 3.40 0067  02.08.2006

@<TRIPOS>MOLECULE
ASD00170059
  36   38    0    0    0
SMALL
NO_CHARGES


@<TRIPOS>ATOM
   1 C1             0.0144     1.3184    -0.0540 C.2     
   2 C2             0.0204    -0.0181    -0.0720 C.2     
   3 C3            -1.3169    -0.5800     0.0132 C.2     
   4 C4            -2.3000     0.3732     0.0942 C.2     
   5 S5            -1.6254     1.9359     0.0606 S.3     
   6 N6            -3.6502     0.1027     0.1843 N.pl3   
   7 C7            -1.5875    -2.0172     0.0128 C.2     
   8 C8            -1.8377    -2.7223    -1.2634 C.ar    
   9 O9            -1.6068    -2.6335     1.0628 O.2     
  10 C10           -1.9789    -4.1108    -1.2810 C.ar    
  11 C11           -2.2126    -4.7622    -2.4744 C.ar    
  12 C12           -2.3067    -4.0422    -3.6522 C.ar    
  13 C13           -2.1673    -2.6657    -3.6417 C.ar    
  14 C14           -1.9395    -2.0015    -2.4542 C.ar    
  15 C15            1.2608     2.1798    -0.1294 C.3     
  16 C16            2.4800     1.3110     0.1911 C.3     
  17 C17            2.4281     0.0422    -0.6652 C.3     
  18 C18            1.2885    -0.8513    -0.1703 C.3     
  19 C19           -2.5617    -4.7605    -4.9522 C.3     
  20 F20           -3.9403    -4.8530    -5.1713 F       
  21 F21           -1.9694    -4.0498    -6.0017 F       
  22 F22           -2.0120    -6.0456    -4.8906 F       
  23 H23           -3.9672    -0.8116     0.1181 H       
  24 H24           -4.2824     0.8270     0.3138 H       
  25 H25           -1.9049    -4.6740    -0.3625 H       
  26 H26           -2.3220    -5.8366    -2.4894 H       
  27 H27           -2.2415    -2.1095    -4.5645 H       
  28 H28           -1.8309    -0.9270    -2.4473 H       
  29 H29            1.3598     2.5923    -1.1335 H       
  30 H30            1.1891     2.9906     0.5956 H       
  31 H31            3.3916     1.8651    -0.0329 H       
  32 H32            2.4669     1.0394     1.2466 H       
  33 H33            2.2531     0.3124    -1.7066 H       
  34 H34            3.3737    -0.4933    -0.5808 H       
  35 H35            1.5390    -1.2527     0.8116 H       
  36 H36            1.1343    -1.6698    -0.8734 H       
@<TRIPOS>BOND
   1    1    2 2
   2    1   15 1
   3    1    5 1
   4    2    3 1
   5    2   18 1
   6    3    4 2
   7    3    7 1
   8    4    5 1
   9    4    6 1
  10    6   23 1
  11    6   24 1
  12    7    8 1
  13    7    9 2
  14    8   10 ar
  15    8   14 ar
  16   10   11 ar
  17   10   25 1
  18   11   12 ar
  19   11   26 1
  20   12   13 ar
  21   12   19 1
  22   13   14 ar
  23   13   27 1
  24   14   28 1
  25   15   16 1
  26   15   29 1
  27   15   30 1
  28   16   17 1
  29   16   31 1
  30   16   32 1
  31   17   18 1
  32   17   33 1
  33   17   34 1
  34   18   35 1
  35   18   36 1
  36   19   20 1
  37   19   21 1
  38   19   22 1

#	End of record

