#	Name: ASD01911085
#	Creating user name:	WinNT
#	Creation time:	15. 06. 2019 19:57

#	Modifying user name:	WinNT
#	Modification time:	15. 06. 2019 19:57

#	Program:	/corina/corina34_cracker 3.40 0067  02.08.2006

@<TRIPOS>MOLECULE
ASD01911085
  46   49    0    0    0
SMALL
NO_CHARGES


@<TRIPOS>ATOM
   1 C1            -0.3665     1.7024     0.6180 C.2     
   2 C2            -0.3112     0.2382     0.4035 C.2     
   3 N3            -1.3060    -0.6161     0.5442 N.2     
   4 C4            -0.7934    -1.8188     0.2470 C.2     
   5 N5             0.4610    -1.6489    -0.0545 N.2     
   6 O6             0.7593    -0.4756     0.0226 O.3     
   7 C7            -1.5355    -3.1303     0.2606 C.3     
   8 C8            -1.4966    -3.7537    -1.1365 C.3     
   9 C9            -2.2779    -5.0697    -1.1317 C.3     
  10 C10           -1.6221    -6.0447    -0.1488 C.3     
  11 N11           -1.5241    -5.3963     1.1660 N.am    
  12 C12           -0.8713    -4.0833     1.2593 C.3     
  13 C13           -2.0235    -5.9945     2.2656 C.2     
  14 O14           -1.8688    -5.4847     3.3583 O.2     
  15 C15           -2.7591    -7.2698     2.1430 C.ar    
  16 C16           -2.2488    -8.2996     1.3497 C.ar    
  17 C17           -2.9391    -9.4874     1.2388 C.ar    
  18 C18           -4.1382    -9.6609     1.9131 C.ar    
  19 C19           -4.6496    -8.6415     2.7017 C.ar    
  20 C20           -3.9643    -7.4519     2.8246 C.ar    
  21 F21           -4.8109   -10.8271     1.8010 F       
  22 C22            0.8686     2.5073     0.5381 C.ar    
  23 O23           -1.4291     2.2420     0.8547 O.2     
  24 C24            0.8034     3.9019     0.6043 C.ar    
  25 C25            1.9612     4.6471     0.5296 C.ar    
  26 C26            3.1858     4.0173     0.3893 C.ar    
  27 C27            3.2580     2.6367     0.3226 C.ar    
  28 C28            2.1092     1.8781     0.4018 C.ar    
  29 H29           -2.5713    -2.9593     0.5540 H       
  30 H30           -1.9466    -3.0669    -1.8533 H       
  31 H31           -0.4618    -3.9468    -1.4193 H       
  32 H32           -3.3067    -4.8809    -0.8250 H       
  33 H33           -2.2695    -5.5014    -2.1326 H       
  34 H34           -2.2300    -6.9457    -0.0675 H       
  35 H35           -0.6247    -6.3050    -0.5031 H       
  36 H36            0.1873    -4.1838     1.0199 H       
  37 H37           -0.9838    -3.6903     2.2697 H       
  38 H38           -1.3151    -8.1654     0.8237 H       
  39 H39           -2.5456   -10.2843     0.6252 H       
  40 H40           -5.5841    -8.7817     3.2246 H       
  41 H41           -4.3633    -6.6587     3.4394 H       
  42 H42           -0.1514     4.3946     0.7134 H       
  43 H43            1.9124     5.7248     0.5802 H       
  44 H44            4.0893     4.6061     0.3312 H       
  45 H45            4.2170     2.1521     0.2127 H       
  46 H46            2.1671     0.8009     0.3499 H       
@<TRIPOS>BOND
   1    1    2 1
   2    1   22 1
   3    1   23 2
   4    2    3 2
   5    2    6 1
   6    3    4 1
   7    4    5 2
   8    4    7 1
   9    5    6 1
  10    7    8 1
  11    7   12 1
  12    7   29 1
  13    8    9 1
  14    8   30 1
  15    8   31 1
  16    9   10 1
  17    9   32 1
  18    9   33 1
  19   10   11 1
  20   10   34 1
  21   10   35 1
  22   11   12 1
  23   11   13 am
  24   12   36 1
  25   12   37 1
  26   13   14 2
  27   13   15 1
  28   15   16 ar
  29   15   20 ar
  30   16   17 ar
  31   16   38 1
  32   17   18 ar
  33   17   39 1
  34   18   19 ar
  35   18   21 1
  36   19   20 ar
  37   19   40 1
  38   20   41 1
  39   22   24 ar
  40   22   28 ar
  41   24   25 ar
  42   24   42 1
  43   25   26 ar
  44   25   43 1
  45   26   27 ar
  46   26   44 1
  47   27   28 ar
  48   27   45 1
  49   28   46 1

#	End of record

