#	Name: ASD07930434
#	Creating user name:	WinNT
#	Creation time:	15. 06. 2019 21:12

#	Modifying user name:	WinNT
#	Modification time:	15. 06. 2019 21:12

#	Program:	/corina/corina34_cracker 3.40 0067  02.08.2006

@<TRIPOS>MOLECULE
ASD07930434
  45   47    0    0    0
SMALL
NO_CHARGES


@<TRIPOS>ATOM
   1 N1             0.0006     1.2712     0.0037 N.2     
   2 N2            -1.1611    -0.7565     0.0076 N.pl3   
   3 C3            -1.3888    -1.7915    -1.0064 C.3     
   4 C4            -0.2711    -2.8399    -0.9192 C.3     
   5 S5             1.3268    -1.9884    -1.1092 S.o2    
   6 N6             1.2083    -0.7374    -0.0148 N.am    
   7 C7             0.0133    -0.0321    -0.0009 C.2     
   8 C8             2.3111    -0.3991     0.8883 C.3     
   9 C9            -1.3839    -1.1539    -2.3972 C.3     
  10 C10           -2.7200    -2.4534    -0.7598 C.ar    
  11 C11           -3.4610    -2.1182     0.3561 C.ar    
  12 C12           -4.6881    -2.7283     0.5827 C.ar    
  13 C13           -5.1670    -3.6742    -0.3140 C.ar    
  14 C14           -4.4225    -4.0064    -1.4291 C.ar    
  15 C15           -3.2020    -3.3932    -1.6557 C.ar    
  16 N16           -5.4404    -2.3905     1.7132 N.am    
  17 C17           -6.7862    -2.3667     1.6446 C.2     
  18 O18           -7.3435    -2.5428     0.5792 O.2     
  19 C19           -7.5869    -2.1255     2.8692 C.2     
  20 O20            2.3891    -2.7940    -0.6176 O.2     
  21 O21            1.4101    -1.3489    -2.3754 O.2     
  22 C22           -9.0053    -2.0699     2.9663 C.2     
  23 F23           -2.4754    -3.7196    -2.7469 F       
  24 C24           -9.2327    -1.8290     4.2782 C.2     
  25 O25           -8.0321    -1.7555     4.8693 O.3     
  26 N26           -7.1313    -1.9262     4.0811 N.2     
  27 C27          -10.5751    -1.6728     4.9450 C.3     
  28 H28            0.8358     1.7644    -0.0027 H       
  29 H29           -1.8367    -0.5788     0.6806 H       
  30 H30           -0.3092    -3.3379     0.0496 H       
  31 H31           -0.3931    -3.5741    -1.7155 H       
  32 H32            2.9602     0.3345     0.4103 H       
  33 H33            1.9095     0.0181     1.8118 H       
  34 H34            2.8840    -1.2983     1.1149 H       
  35 H35           -0.4199    -0.6773    -2.5751 H       
  36 H36           -1.5532    -1.9235    -3.1503 H       
  37 H37           -2.1753    -0.4067    -2.4571 H       
  38 H38           -3.0865    -1.3826     1.0525 H       
  39 H39           -6.1207    -4.1500    -0.1396 H       
  40 H40           -4.7945    -4.7423    -2.1266 H       
  41 H41           -4.9933    -2.1735     2.5462 H       
  42 H42           -9.7317    -2.1915     2.1764 H       
  43 H43          -10.9265    -2.6464     5.2867 H       
  44 H44          -10.4811    -1.0007     5.7980 H       
  45 H45          -11.2885    -1.2584     4.2328 H       
@<TRIPOS>BOND
   1    1    7 2
   2    1   28 1
   3    2    3 1
   4    2    7 1
   5    2   29 1
   6    3    4 1
   7    3    9 1
   8    3   10 1
   9    4    5 1
  10    4   30 1
  11    4   31 1
  12    5    6 am
  13    5   20 2
  14    5   21 2
  15    6    7 1
  16    6    8 1
  17    8   32 1
  18    8   33 1
  19    8   34 1
  20    9   35 1
  21    9   36 1
  22    9   37 1
  23   10   11 ar
  24   10   15 ar
  25   11   12 ar
  26   11   38 1
  27   12   13 ar
  28   12   16 1
  29   13   14 ar
  30   13   39 1
  31   14   15 ar
  32   14   40 1
  33   15   23 1
  34   16   17 am
  35   16   41 1
  36   17   18 2
  37   17   19 1
  38   19   22 1
  39   19   26 2
  40   22   24 2
  41   22   42 1
  42   24   25 1
  43   24   27 1
  44   25   26 1
  45   27   43 1
  46   27   44 1
  47   27   45 1

#	End of record

