#	Name: ASD03093015
#	Creating user name:	WinNT
#	Creation time:	15. 06. 2019 20:33

#	Modifying user name:	WinNT
#	Modification time:	15. 06. 2019 20:33

#	Program:	/corina/corina34_cracker 3.40 0067  02.08.2006

@<TRIPOS>MOLECULE
ASD03093015
  46   49    0    0    0
SMALL
NO_CHARGES


@<TRIPOS>ATOM
   1 C1            -0.2135     1.4230    -0.0040 C.2     
   2 C2            -0.4806     0.0849    -0.0347 C.2     
   3 C3            -1.8309    -0.2071    -0.0418 C.2     
   4 C4            -2.6457     0.8968    -0.0169 C.2     
   5 S5            -1.7190     2.3283     0.0231 S.3     
   6 C6            -2.3546    -1.5936    -0.0744 C.ar    
   7 C7            -3.3176    -1.9560    -1.0151 C.ar    
   8 C8            -3.8014    -3.2481    -1.0407 C.ar    
   9 C9            -3.3329    -4.1830    -0.1350 C.ar    
  10 C10           -2.3774    -3.8292     0.8007 C.ar    
  11 C11           -1.8817    -2.5417     0.8318 C.ar    
  12 N12           -4.0270     0.8544    -0.0188 N.3     
  13 C13           -4.5912     2.0904    -0.5803 C.3     
  14 C14           -6.1175     1.9768    -0.6186 C.3     
  15 O15           -6.6039     1.7096     0.6994 O.3     
  16 C16           -6.0752     0.5126     1.2765 C.3     
  17 C17           -4.5485     0.6113     1.3340 C.3     
  18 C18            1.0833     1.9959     0.0100 C.2     
  19 O19            2.0667     1.2774    -0.0056 O.2     
  20 N20            1.2279     3.3355     0.0405 N.am    
  21 C21            2.5046     3.8993     0.1449 C.ar    
  22 C22            3.5866     3.2905    -0.4773 C.ar    
  23 C23            4.8455     3.8488    -0.3734 C.ar    
  24 C24            5.0293     5.0146     0.3510 C.ar    
  25 C25            3.9518     5.6233     0.9722 C.ar    
  26 C26            2.6902     5.0715     0.8661 C.ar    
  27 F27            6.2618     5.5586     0.4521 F       
  28 H28            0.2891    -0.6724    -0.0522 H       
  29 H29           -3.6846    -1.2268    -1.7222 H       
  30 H30           -4.5474    -3.5300    -1.7689 H       
  31 H31           -3.7150    -5.1929    -0.1582 H       
  32 H32           -2.0154    -4.5633     1.5054 H       
  33 H33           -1.1357    -2.2666     1.5628 H       
  34 H34           -4.3048     2.9374     0.0432 H       
  35 H35           -4.2116     2.2372    -1.5915 H       
  36 H36           -6.5431     2.9126    -0.9809 H       
  37 H37           -6.4053     1.1634    -1.2847 H       
  38 H38           -6.4702     0.3894     2.2849 H       
  39 H39           -6.3618    -0.3434     0.6656 H       
  40 H40           -4.1377    -0.3215     1.7203 H       
  41 H41           -4.2614     1.4346     1.9882 H       
  42 H42            0.4472     3.9089    -0.0098 H       
  43 H43            3.4437     2.3809    -1.0417 H       
  44 H44            5.6872     3.3757    -0.8571 H       
  45 H45            4.0973     6.5325     1.5366 H       
  46 H46            1.8500     5.5465     1.3508 H       
@<TRIPOS>BOND
   1    1    2 2
   2    1   18 1
   3    1    5 1
   4    2    3 1
   5    2   28 1
   6    3    4 2
   7    3    6 1
   8    4    5 1
   9    4   12 1
  10    6    7 ar
  11    6   11 ar
  12    7    8 ar
  13    7   29 1
  14    8    9 ar
  15    8   30 1
  16    9   10 ar
  17    9   31 1
  18   10   11 ar
  19   10   32 1
  20   11   33 1
  21   12   13 1
  22   12   17 1
  23   13   14 1
  24   13   34 1
  25   13   35 1
  26   14   15 1
  27   14   36 1
  28   14   37 1
  29   15   16 1
  30   16   17 1
  31   16   38 1
  32   16   39 1
  33   17   40 1
  34   17   41 1
  35   18   19 2
  36   18   20 am
  37   20   21 1
  38   20   42 1
  39   21   22 ar
  40   21   26 ar
  41   22   23 ar
  42   22   43 1
  43   23   24 ar
  44   23   44 1
  45   24   25 ar
  46   24   27 1
  47   25   26 ar
  48   25   45 1
  49   26   46 1

#	End of record

