#	Name: ASD01915656
#	Creating user name:	WinNT
#	Creation time:	15. 06. 2019 20:05

#	Modifying user name:	WinNT
#	Modification time:	15. 06. 2019 20:05

#	Program:	/corina/corina34_cracker 3.40 0067  02.08.2006

@<TRIPOS>MOLECULE
ASD01915656
  44   47    0    0    0
SMALL
NO_CHARGES


@<TRIPOS>ATOM
   1 C1             0.0134     1.4530     0.2398 C.2     
   2 N2             0.0525     0.1095    -0.0593 N.pl3   
   3 C3            -1.1746    -0.6380    -0.3595 C.3     
   4 C4            -2.3444    -0.0150     0.4005 C.3     
   5 N5            -2.3878     1.4375     0.2714 N.am    
   6 C6            -1.2593     2.1865     0.3114 C.2     
   7 C7             1.3038     1.8559     0.4395 C.2     
   8 C8             2.0768     0.7013     0.2570 C.2     
   9 N9             1.2640    -0.2887    -0.0300 N.2     
  10 C10            3.5769     0.6119     0.3703 C.3     
  11 O11            4.1073     1.8981     0.6966 O.3     
  12 C12            5.4559     1.9919     0.8362 C.ar    
  13 O13           -1.2969     3.3990     0.4016 O.2     
  14 C14            6.0385     3.2106     1.1525 C.ar    
  15 C15            6.2517     0.8680     0.6683 C.ar    
  16 C16            7.6223     0.9661     0.8108 C.ar    
  17 C17            8.2010     2.1830     1.1204 C.ar    
  18 C18            7.4096     3.3034     1.2939 C.ar    
  19 C19           -3.6236     2.0720     0.1023 C.ar    
  20 C20           -4.5330     2.1140     1.1510 C.ar    
  21 C21           -3.9400     2.6655    -1.1127 C.ar    
  22 C22           -5.1602     3.2911    -1.2774 C.ar    
  23 C23           -6.0676     3.3272    -0.2321 C.ar    
  24 C24           -5.7520     2.7406     0.9820 C.ar    
  25 C25           -3.6516    -0.5985    -0.1394 C.3     
  26 F26           -7.2605     3.9401    -0.3952 F       
  27 H27           -1.3731    -0.5964    -1.4305 H       
  28 H28           -1.0526    -1.6765    -0.0517 H       
  29 H29           -2.2556    -0.2722     1.4559 H       
  30 H30            1.6523     2.8485     0.6841 H       
  31 H31            3.8404    -0.0991     1.1532 H       
  32 H32            3.9937     0.2774    -0.5797 H       
  33 H33            5.4208     4.0861     1.2877 H       
  34 H34            5.8001    -0.0828     0.4268 H       
  35 H35            8.2422     0.0913     0.6805 H       
  36 H36            9.2727     2.2576     1.2314 H       
  37 H37            7.8641     4.2529     1.5354 H       
  38 H38           -4.2872     1.6566     2.0980 H       
  39 H39           -3.2323     2.6382    -1.9280 H       
  40 H40           -5.4067     3.7528    -2.2221 H       
  41 H41           -6.4613     2.7696     1.7959 H       
  42 H42           -3.6082    -1.6869    -0.0977 H       
  43 H43           -4.4853    -0.2446     0.4670 H       
  44 H44           -3.7926    -0.2798    -1.1722 H       
@<TRIPOS>BOND
   1    1    2 1
   2    1    7 2
   3    1    6 1
   4    2    3 1
   5    2    9 1
   6    3    4 1
   7    3   27 1
   8    3   28 1
   9    4    5 1
  10    4   25 1
  11    4   29 1
  12    5    6 am
  13    5   19 1
  14    6   13 2
  15    7    8 1
  16    7   30 1
  17    8    9 2
  18    8   10 1
  19   10   11 1
  20   10   31 1
  21   10   32 1
  22   11   12 1
  23   12   14 ar
  24   12   15 ar
  25   14   18 ar
  26   14   33 1
  27   15   16 ar
  28   15   34 1
  29   16   17 ar
  30   16   35 1
  31   17   18 ar
  32   17   36 1
  33   18   37 1
  34   19   20 ar
  35   19   21 ar
  36   20   24 ar
  37   20   38 1
  38   21   22 ar
  39   21   39 1
  40   22   23 ar
  41   22   40 1
  42   23   24 ar
  43   23   26 1
  44   24   41 1
  45   25   42 1
  46   25   43 1
  47   25   44 1

#	End of record

