#	Name: ASD08070638
#	Creating user name:	WinNT
#	Creation time:	15. 06. 2019 21:15

#	Modifying user name:	WinNT
#	Modification time:	15. 06. 2019 21:15

#	Program:	/corina/corina34_cracker 3.40 0067  02.08.2006

@<TRIPOS>MOLECULE
ASD08070638
  44   44    0    0    0
SMALL
NO_CHARGES


@<TRIPOS>ATOM
   1 C1            -0.0179     1.4706     0.0101 C.2     
   2 C2             0.0021    -0.0041     0.0020 C.ar    
   3 C3             1.2216    -0.6880    -0.0133 C.ar    
   4 C4             1.2401    -2.0535    -0.0203 C.ar    
   5 C5             0.0456    -2.7703    -0.0123 C.ar    
   6 C6            -1.1737    -2.0970     0.0025 C.ar    
   7 C7            -1.1984    -0.7210     0.0155 C.ar    
   8 O8             1.0268     2.0929     0.0035 O.2     
   9 N9            -1.1941     2.1285     0.0193 N.am    
  10 S10            0.0773    -4.5320    -0.0214 S.3     
  11 C11           -1.6825    -4.9718    -0.0065 C.3     
  12 C12            2.5564    -2.7870    -0.0373 C.3     
  13 C13            0.3746     4.2492    -3.4182 C.3     
  14 C14            0.2626     3.7297    -1.9835 C.3     
  15 C15           -1.1020     4.1128    -1.4074 C.3     
  16 C16           -1.2140     3.5934     0.0273 C.3     
  17 C17           -2.5253     4.0822     0.6459 C.3     
  18 C18           -2.5802     3.6686     2.1179 C.3     
  19 C19           -3.8915     4.1574     2.7364 C.3     
  20 H20            2.1498    -0.1359    -0.0199 H       
  21 H21           -2.0988    -2.6543     0.0083 H       
  22 H22           -2.1423    -0.1964     0.0315 H       
  23 H23           -2.0275     1.6321     0.0205 H       
  24 H24           -1.7859    -6.0569    -0.0109 H       
  25 H25           -2.1509    -4.5658     0.8901 H       
  26 H26           -2.1682    -4.5569    -0.8897 H       
  27 H27            2.8842    -2.9690     0.9861 H       
  28 H28            2.4353    -3.7387    -0.5548 H       
  29 H29            3.3018    -2.1838    -0.5557 H       
  30 H30           -0.4140     3.8072    -4.0273 H       
  31 H31            0.2707     5.3342    -3.4209 H       
  32 H32            1.3468     3.9762    -3.8286 H       
  33 H33            0.3665     2.6447    -1.9808 H       
  34 H34            1.0512     4.1717    -1.3744 H       
  35 H35           -1.2059     5.1979    -1.4101 H       
  36 H36           -1.8906     3.6708    -2.0164 H       
  37 H37           -0.3744     3.9649     0.6148 H       
  38 H38           -2.5794     5.1683     0.5714 H       
  39 H39           -3.3661     3.6391     0.1123 H       
  40 H40           -2.5261     2.5825     2.1923 H       
  41 H41           -1.7394     4.1117     2.6514 H       
  42 H42           -3.9306     3.8627     3.7850 H       
  43 H43           -3.9456     5.2435     2.6619 H       
  44 H44           -4.7323     3.7143     2.2028 H       
@<TRIPOS>BOND
   1    1    2 1
   2    1    8 2
   3    1    9 am
   4    2    3 ar
   5    2    7 ar
   6    3    4 ar
   7    3   20 1
   8    4    5 ar
   9    4   12 1
  10    5    6 ar
  11    5   10 1
  12    6    7 ar
  13    6   21 1
  14    7   22 1
  15    9   16 1
  16    9   23 1
  17   10   11 1
  18   11   24 1
  19   11   25 1
  20   11   26 1
  21   12   27 1
  22   12   28 1
  23   12   29 1
  24   13   14 1
  25   13   30 1
  26   13   31 1
  27   13   32 1
  28   14   15 1
  29   14   33 1
  30   14   34 1
  31   15   16 1
  32   15   35 1
  33   15   36 1
  34   16   17 1
  35   16   37 1
  36   17   18 1
  37   17   38 1
  38   17   39 1
  39   18   19 1
  40   18   40 1
  41   18   41 1
  42   19   42 1
  43   19   43 1
  44   19   44 1

#	End of record

