#	Name: ASD02030337
#	Creating user name:	WinNT
#	Creation time:	15. 06. 2019 20:15

#	Modifying user name:	WinNT
#	Modification time:	15. 06. 2019 20:15

#	Program:	/corina/corina34_cracker 3.40 0067  02.08.2006

@<TRIPOS>MOLECULE
ASD02030337
  52   54    0    0    0
SMALL
NO_CHARGES


@<TRIPOS>ATOM
   1 N1             0.3762     1.4969     0.1772 N.am    
   2 C2             0.2040     0.0398     0.0933 C.3     
   3 C3             0.8901    -0.4621    -1.1832 C.3     
   4 N4             2.2492     0.0947    -1.2358 N.am    
   5 C5             2.4214     1.5518    -1.1520 C.3     
   6 C6             1.7353     2.0537     0.1245 C.3     
   7 C7            -0.6935     2.3084     0.2946 C.2     
   8 O8            -1.8127     1.8368     0.3320 O.2     
   9 O9            -0.5219     3.6417     0.3704 O.3     
  10 C10            3.3185    -0.7165    -1.3583 C.2     
  11 O11            3.1759    -1.9225    -1.3044 O.2     
  12 N12            6.7652     0.0241    -1.7590 N.pl3   
  13 N13            5.8002    -0.8043    -1.5518 N.2     
  14 C14            4.6649    -0.1396    -1.5583 C.2     
  15 N15            4.9450     1.1578    -1.7800 N.2     
  16 C16            6.2438     1.2596    -1.9041 C.2     
  17 C17            8.1268    -0.3025    -1.8177 C.ar    
  18 C18            8.5346    -1.6186    -1.6454 C.ar    
  19 C19            9.8772    -1.9374    -1.7042 C.ar    
  20 C20           10.8149    -0.9474    -1.9340 C.ar    
  21 C21           10.4120     0.3642    -2.1056 C.ar    
  22 C22            9.0703     0.6883    -2.0540 C.ar    
  23 C23            0.9618    -1.9903    -1.1607 C.3     
  24 C24           -1.7187     4.4542     0.4956 C.3     
  25 C25           -2.4696     4.0632     1.7700 C.3     
  26 C26           -1.3270     5.9315     0.5674 C.3     
  27 C27           -2.6206     4.2242    -0.7187 C.3     
  28 H28            0.6593    -0.4330     0.9635 H       
  29 H29           -0.8583    -0.2015     0.0568 H       
  30 H30            0.3258    -0.1327    -2.0556 H       
  31 H31            3.4837     1.7931    -1.1154 H       
  32 H32            1.9661     2.0246    -2.0222 H       
  33 H33            1.6842     3.1424     0.1085 H       
  34 H34            2.2996     1.7243     0.9969 H       
  35 H35            6.7977     2.1680    -2.0896 H       
  36 H36            7.8027    -2.3921    -1.4651 H       
  37 H37           10.1949    -2.9609    -1.5702 H       
  38 H38           11.8642    -1.1992    -1.9793 H       
  39 H39           11.1467     1.1353    -2.2842 H       
  40 H40            8.7559     1.7122    -2.1925 H       
  41 H41           -0.0455    -2.4002    -1.0872 H       
  42 H42            1.4326    -2.3455    -2.0774 H       
  43 H43            1.5493    -2.3139    -0.3015 H       
  44 H44           -1.8271     4.2271     2.6351 H       
  45 H45           -3.3681     4.6732     1.8640 H       
  46 H46           -2.7487     3.0108     1.7189 H       
  47 H47           -0.7920     6.2100    -0.3405 H       
  48 H48           -2.2254     6.5415     0.6614 H       
  49 H49           -0.6844     6.0953     1.4325 H       
  50 H50           -2.8997     3.1718    -0.7698 H       
  51 H51           -3.5191     4.8342    -0.6247 H       
  52 H52           -2.0857     4.5028    -1.6266 H       
@<TRIPOS>BOND
   1    1    2 1
   2    1    6 1
   3    1    7 am
   4    2    3 1
   5    2   28 1
   6    2   29 1
   7    3    4 1
   8    3   23 1
   9    3   30 1
  10    4    5 1
  11    4   10 am
  12    5    6 1
  13    5   31 1
  14    5   32 1
  15    6   33 1
  16    6   34 1
  17    7    8 2
  18    7    9 1
  19    9   24 1
  20   10   11 2
  21   10   14 1
  22   12   13 1
  23   12   16 1
  24   12   17 1
  25   13   14 2
  26   14   15 1
  27   15   16 2
  28   16   35 1
  29   17   18 ar
  30   17   22 ar
  31   18   19 ar
  32   18   36 1
  33   19   20 ar
  34   19   37 1
  35   20   21 ar
  36   20   38 1
  37   21   22 ar
  38   21   39 1
  39   22   40 1
  40   23   41 1
  41   23   42 1
  42   23   43 1
  43   24   25 1
  44   24   27 1
  45   24   26 1
  46   25   44 1
  47   25   45 1
  48   25   46 1
  49   26   47 1
  50   26   48 1
  51   26   49 1
  52   27   50 1
  53   27   51 1
  54   27   52 1

#	End of record

