#	Name: ASD03731471
#	Creating user name:	WinNT
#	Creation time:	15. 06. 2019 20:45

#	Modifying user name:	WinNT
#	Modification time:	15. 06. 2019 20:45

#	Program:	/corina/corina34_cracker 3.40 0067  02.08.2006

@<TRIPOS>MOLECULE
ASD03731471
  60   66    0    0    0
SMALL
NO_CHARGES


@<TRIPOS>ATOM
   1 C1            -0.0188     1.5369     0.0105 C.3     
   2 C2             0.0021    -0.0041     0.0020 C.3     
   3 C3             1.2599    -0.5206     0.6564 C.ar    
   4 C4             2.3116     0.3898     0.7263 C.ar    
   5 S5             1.7744     1.9153    -0.0046 S.3     
   6 C6             3.5321     0.0442     1.2990 C.ar    
   7 C7             3.7227    -1.2162     1.8159 C.ar    
   8 C8             2.6743    -2.1396     1.7565 C.ar    
   9 C9             1.4583    -1.7832     1.1791 C.ar    
  10 C10            2.8573    -3.4957     2.3064 C.2     
  11 O11            1.9469    -4.3003     2.2557 O.2     
  12 N12            4.0335    -3.8432     2.8651 N.am    
  13 C13            4.2153    -5.1904     3.4115 C.3     
  14 C14            5.6289    -5.3230     3.9816 C.3     
  15 C15            5.8187    -6.7299     4.5521 C.3     
  16 O16           10.6279    -2.0091     7.0574 O.3     
  17 C17           11.8841    -1.6701     7.6739 C.3     
  18 O18           12.0561    -2.6848     8.6807 O.3     
  19 C19           11.3702    -3.7736     8.2237 C.ar    
  20 C20           10.4914    -3.3573     7.2262 C.ar    
  21 C21           11.4262    -5.1083     8.5832 C.ar    
  22 C22           10.6075    -6.0424     7.9558 C.ar    
  23 C23            9.7279    -5.6132     6.9666 C.ar    
  24 C24            9.6740    -4.2842     6.6016 C.ar    
  25 O25           10.5185    -7.3902     8.1450 O.3     
  26 C26            8.9717    -6.8310     6.5072 C.3     
  27 C27            9.2720    -7.8651     7.6007 C.3     
  28 N28            7.1723    -6.8569     5.0981 N.am    
  29 C29            7.4993    -6.5688     6.3736 C.2     
  30 C30            9.4162    -7.3022     5.1543 C.ar    
  31 C31           10.6291    -7.6968     4.6353 C.ar    
  32 C32           10.7219    -8.0890     3.3118 C.ar    
  33 C33            9.5940    -8.0829     2.5114 C.ar    
  34 C34            8.3771    -7.6875     3.0262 C.ar    
  35 C35            8.2742    -7.2915     4.3576 C.ar    
  36 O36            6.7508    -6.1753     7.2431 O.2     
  37 H37           -0.5096     1.9274    -0.8810 H       
  38 H38           -0.4924     1.9177     0.9154 H       
  39 H39           -0.8657    -0.3785     0.5450 H       
  40 H40           -0.0392    -0.3587    -1.0279 H       
  41 H41            4.3326     0.7682     1.3373 H       
  42 H42            4.6680    -1.4885     2.2615 H       
  43 H43            0.6569    -2.5061     1.1401 H       
  44 H44            4.7597    -3.2014     2.9056 H       
  45 H45            3.4864    -5.3627     4.2034 H       
  46 H46            4.0723    -5.9258     2.6198 H       
  47 H47            6.3577    -5.1507     3.1896 H       
  48 H48            5.7718    -4.5875     4.7733 H       
  49 H49            5.0899    -6.9022     5.3441 H       
  50 H50            5.6758    -7.4654     3.7605 H       
  51 H51           12.6928    -1.7136     6.9443 H       
  52 H52           11.8321    -0.6820     8.1310 H       
  53 H53           12.1098    -5.4274     9.3560 H       
  54 H54            8.9923    -3.9656     5.8269 H       
  55 H55            9.3912    -8.8596     7.1709 H       
  56 H56            8.4913    -7.8620     8.3614 H       
  57 H57           11.5085    -7.7006     5.2622 H       
  58 H58           11.6729    -8.3994     2.9047 H       
  59 H59            9.6666    -8.3888     1.4782 H       
  60 H60            7.5009    -7.6849     2.3948 H       
@<TRIPOS>BOND
   1    1    2 1
   2    1    5 1
   3    1   37 1
   4    1   38 1
   5    2    3 1
   6    2   39 1
   7    2   40 1
   8    3    4 ar
   9    3    9 ar
  10    4    5 1
  11    4    6 ar
  12    6    7 ar
  13    6   41 1
  14    7    8 ar
  15    7   42 1
  16    8    9 ar
  17    8   10 1
  18    9   43 1
  19   10   11 2
  20   10   12 am
  21   12   13 1
  22   12   44 1
  23   13   14 1
  24   13   45 1
  25   13   46 1
  26   14   15 1
  27   14   47 1
  28   14   48 1
  29   15   28 1
  30   15   49 1
  31   15   50 1
  32   16   17 1
  33   16   20 1
  34   17   18 1
  35   17   51 1
  36   17   52 1
  37   18   19 1
  38   19   20 ar
  39   19   21 ar
  40   20   24 ar
  41   21   22 ar
  42   21   53 1
  43   22   23 ar
  44   22   25 1
  45   23   24 ar
  46   23   26 1
  47   24   54 1
  48   25   27 1
  49   26   27 1
  50   26   29 1
  51   26   30 1
  52   27   55 1
  53   27   56 1
  54   28   29 am
  55   28   35 1
  56   29   36 2
  57   30   31 ar
  58   30   35 ar
  59   31   32 ar
  60   31   57 1
  61   32   33 ar
  62   32   58 1
  63   33   34 ar
  64   33   59 1
  65   34   35 ar
  66   34   60 1

#	End of record

