#	Name: ASD05740055
#	Creating user name:	WinNT
#	Creation time:	15. 06. 2019 21:02

#	Modifying user name:	WinNT
#	Modification time:	15. 06. 2019 21:02

#	Program:	/corina/corina34_cracker 3.40 0067  02.08.2006

@<TRIPOS>MOLECULE
ASD05740055
  52   53    0    0    0
SMALL
NO_CHARGES


@<TRIPOS>ATOM
   1 C1            -0.0184     1.5028     0.0103 C.3     
   2 C2            -0.1160    -4.2854     2.2004 C.ar    
   3 C3            -0.0118    -4.9174     0.9625 C.ar    
   4 C4            -0.1388    -2.9234     2.2814 C.ar    
   5 C5            -0.0568    -2.1558     1.1138 C.ar    
   6 C6             0.0486    -2.7882    -0.1389 C.ar    
   7 C7             0.0703    -4.1733    -0.2029 C.ar    
   8 C8            -0.0799    -0.6927     1.1702 C.2     
   9 C9             0.0021    -0.0041     0.0020 C.2     
  10 C10            0.1059    -0.7029    -1.2182 C.2     
  11 O11            0.1261    -2.0442    -1.2630 O.3     
  12 C12            1.3954     2.0244    -0.0004 C.2     
  13 S13            2.3604     2.3670     1.4295 S.3     
  14 O14            0.1787    -0.0733    -2.2583 O.2     
  15 O15            0.0100    -6.2731     0.8986 O.3     
  16 C16           -0.1922     0.0295     2.4881 C.3     
  17 C17            2.1101     2.2921    -1.0988 C.2     
  18 C18            3.3944     2.7589    -0.8577 C.2     
  19 C19            3.7161     2.8764     0.4319 C.2     
  20 N20            1.5992     2.1138    -2.3985 N.am    
  21 S21            2.5987     1.6105    -3.6192 S.o2    
  22 O22            1.7590     1.5687    -4.7649 O.2     
  23 O23            3.7058     2.4989    -3.5544 O.2     
  24 C24           -0.0777    -6.9825     2.1360 C.3     
  25 C25            3.0975    -0.0647    -3.1342 C.3     
  26 C26            4.0346    -0.6451    -4.1953 C.3     
  27 H27           -0.5455     1.8639    -0.8728 H       
  28 H28           -0.5286     1.8543     0.9071 H       
  29 H29           -0.1838    -4.8776     3.1010 H       
  30 H30           -0.2201    -2.4393     3.2434 H       
  31 H31            0.1509    -4.6703    -1.1584 H       
  32 H32           -0.2461    -0.6983     3.2977 H       
  33 H33            0.6814     0.6659     2.6292 H       
  34 H34           -1.0930     0.6432     2.4906 H       
  35 H35            4.0793     3.0134    -1.6530 H       
  36 H36            4.6680     3.2228     0.8063 H       
  37 H37            0.6618     2.2857    -2.5790 H       
  38 H38            0.7620    -6.7059     2.7736 H       
  39 H39           -1.0125    -6.7278     2.6353 H       
  40 H40           -0.0494    -8.0549     1.9428 H       
  41 H41            3.6139    -0.0267    -2.1750 H       
  42 H42            2.2132    -0.6959    -3.0460 H       
  43 H43            4.3343    -1.6518    -3.9038 H       
  44 H44            3.5182    -0.6832    -5.1544 H       
  45 H45            4.9188    -0.0140    -4.2835 H       
  46 C46           10.4460    10.8921    10.1660 C.3     
  47 N47           10.4659     9.4273    10.1580 N.2     
  48 C48           11.0066     8.8147     9.2120 C.1     
  49 O49           11.5292     8.2228     8.2977 O.2     
  50 H50           11.4686    11.2694    10.1583 H       
  51 H51            9.9188    11.2532     9.2830 H       
  52 H52            9.9358    11.2436    11.0628 H       
@<TRIPOS>BOND
   1    1    9 1
   2    1   12 1
   3    1   27 1
   4    1   28 1
   5    2    3 ar
   6    2    4 ar
   7    2   29 1
   8    3   15 1
   9    3    7 ar
  10    4    5 ar
  11    4   30 1
  12    5    6 ar
  13    5    8 1
  14    6    7 ar
  15    6   11 1
  16    7   31 1
  17    8    9 2
  18    8   16 1
  19    9   10 1
  20   10   11 1
  21   10   14 2
  22   12   13 1
  23   12   17 2
  24   13   19 1
  25   15   24 1
  26   16   32 1
  27   16   33 1
  28   16   34 1
  29   17   18 1
  30   17   20 1
  31   18   19 2
  32   18   35 1
  33   19   36 1
  34   20   21 am
  35   20   37 1
  36   21   22 2
  37   21   23 2
  38   21   25 1
  39   24   38 1
  40   24   39 1
  41   24   40 1
  42   25   26 1
  43   25   41 1
  44   25   42 1
  45   26   43 1
  46   26   44 1
  47   26   45 1
  48   46   47 1
  49   46   50 1
  50   46   51 1
  51   46   52 1
  52   47   48 2
  53   48   49 2

#	End of record

