#	Name: ASD00310332
#	Creating user name:	WinNT
#	Creation time:	15. 06. 2019 18:34

#	Modifying user name:	WinNT
#	Modification time:	15. 06. 2019 18:34

#	Program:	/corina/corina34_cracker 3.40 0067  02.08.2006

@<TRIPOS>MOLECULE
ASD00310332
  45   48    0    0    0
SMALL
NO_CHARGES


@<TRIPOS>ATOM
   1 N1             0.0630     1.2631     0.4681 N.pl3   
   2 N2             0.0666    -0.0174     0.3803 N.2     
   3 C3             1.2250    -0.4791    -0.0411 C.2     
   4 C4             2.0852     0.6940    -0.2515 C.ar    
   5 C5             3.3924     0.8992    -0.6779 C.ar    
   6 C6             3.8864     2.1942    -0.7568 C.ar    
   7 C7             3.0717     3.2793    -0.4085 C.ar    
   8 C8             1.7875     3.0816     0.0106 C.ar    
   9 C9             1.2723     1.7911     0.0964 C.ar    
  10 C10            1.5869    -1.8894    -0.2583 C.2     
  11 O11            2.7002    -2.1774    -0.6522 O.2     
  12 O12            0.6837    -2.8614    -0.0203 O.3     
  13 C13            5.2793     2.4293    -1.2100 C.ar    
  14 C14            5.5396     3.3630    -2.2116 C.ar    
  15 C15            6.8355     3.5797    -2.6305 C.ar    
  16 C16            7.8803     2.8687    -2.0560 C.ar    
  17 C17            7.6242     1.9380    -1.0582 C.ar    
  18 C18            6.3310     1.7211    -0.6311 C.ar    
  19 O19            9.1561     3.0837    -2.4714 O.3     
  20 C20           10.1826     2.3178    -1.8376 C.3     
  21 Cl21           3.7023     4.8935    -0.5106 Cl      
  22 C22            1.1139    -4.1453    -0.1369 C.ar    
  23 C23            1.8916    -4.7111     0.8632 C.ar    
  24 C24            1.9899    -6.7586    -0.3743 C.ar    
  25 C25            0.7713    -4.8943    -1.2534 C.ar    
  26 C26            2.3276    -6.0163     0.7423 C.ar    
  27 C27            1.2098    -6.1991    -1.3694 C.ar    
  28 C28            2.4673    -8.1821    -0.5037 C.3     
  29 H29           -0.6988     1.7898     0.7563 H       
  30 H30            4.0173     0.0597    -0.9448 H       
  31 H31            1.1706     3.9274     0.2763 H       
  32 H32            4.7271     3.9160    -2.6594 H       
  33 H33            7.0378     4.3031    -3.4066 H       
  34 H34            8.4390     1.3861    -0.6133 H       
  35 H35            6.1328     0.9999     0.1481 H       
  36 H36           11.1503     2.5862    -2.2613 H       
  37 H37           10.1837     2.5268    -0.7678 H       
  38 H38            9.9966     1.2561    -2.0002 H       
  39 H39            2.1562    -4.1314     1.7352 H       
  40 H40            0.1620    -4.4577    -2.0309 H       
  41 H41            2.9330    -6.4572     1.5205 H       
  42 H42            0.9478    -6.7809    -2.2407 H       
  43 H43            1.7325    -8.8536    -0.0597 H       
  44 H44            2.5942    -8.4284    -1.5579 H       
  45 H45            3.4206    -8.2940     0.0128 H       
@<TRIPOS>BOND
   1    1    2 1
   2    1    9 1
   3    1   29 1
   4    2    3 2
   5    3    4 1
   6    3   10 1
   7    4    5 ar
   8    4    9 ar
   9    5    6 ar
  10    5   30 1
  11    6    7 ar
  12    6   13 1
  13    7    8 ar
  14    7   21 1
  15    8    9 ar
  16    8   31 1
  17   10   11 2
  18   10   12 1
  19   12   22 1
  20   13   14 ar
  21   13   18 ar
  22   14   15 ar
  23   14   32 1
  24   15   16 ar
  25   15   33 1
  26   16   17 ar
  27   16   19 1
  28   17   18 ar
  29   17   34 1
  30   18   35 1
  31   19   20 1
  32   20   36 1
  33   20   37 1
  34   20   38 1
  35   22   23 ar
  36   22   25 ar
  37   23   26 ar
  38   23   39 1
  39   24   26 ar
  40   24   27 ar
  41   24   28 1
  42   25   27 ar
  43   25   40 1
  44   26   41 1
  45   27   42 1
  46   28   43 1
  47   28   44 1
  48   28   45 1

#	End of record

