#	Name: ASD08390034
#	Creating user name:	WinNT
#	Creation time:	15. 06. 2019 21:19

#	Modifying user name:	WinNT
#	Modification time:	15. 06. 2019 21:19

#	Program:	/corina/corina34_cracker 3.40 0067  02.08.2006

@<TRIPOS>MOLECULE
ASD08390034
  54   57    0    0    0
SMALL
NO_CHARGES


@<TRIPOS>ATOM
   1 C1            -0.2106     1.5206    -0.1694 C.3     
   2 C2            -0.0158     0.0665     0.3040 C.3     
   3 N3             1.1599     1.9626    -0.4768 N.pl3   
   4 C4             2.0158     0.9228    -0.2203 C.2     
   5 N5             1.4349    -0.1476     0.2111 N.2     
   6 C6             1.5432     3.2867    -0.9728 C.3     
   7 C7             1.6923     4.2346     0.1892 C.ar    
   8 C8             2.9373     4.4501     0.7500 C.ar    
   9 C9             3.0741     5.3196     1.8159 C.ar    
  10 C10            1.9660     5.9739     2.3208 C.ar    
  11 C11            0.7211     5.7590     1.7594 C.ar    
  12 C12            0.5851     4.8929     0.6907 C.ar    
  13 C13            3.4799     1.0182    -0.4207 C.ar    
  14 C14            4.3525     0.4780     0.5236 C.ar    
  15 C15            5.7158     0.5700     0.3313 C.ar    
  16 C16            6.2175     1.1969    -0.7952 C.ar    
  17 C17            5.3570     1.7351    -1.7353 C.ar    
  18 C18            3.9916     1.6434    -1.5574 C.ar    
  19 C19           -1.0736     1.5667    -1.4040 C.ar    
  20 C20           -2.4146     1.8863    -1.2971 C.ar    
  21 C21           -3.2078     1.9292    -2.4273 C.ar    
  22 C22           -2.6578     1.6513    -3.6703 C.ar    
  23 C23           -1.3121     1.3309    -3.7748 C.ar    
  24 C24           -0.5219     1.2948    -2.6423 C.ar    
  25 O25           -3.4362     1.6924    -4.7836 O.3     
  26 C26           -2.8026     1.3951    -6.0295 C.3     
  27 C27           -0.7495    -0.8871    -0.6034 C.2     
  28 O28           -1.8870    -1.2069    -0.3509 O.2     
  29 O29           -0.1394    -1.3812    -1.6921 O.3     
  30 C30           -0.4932    -0.0956     1.7485 C.3     
  31 H31           -0.6418     2.1293     0.6254 H       
  32 H32            2.4908     3.2144    -1.5066 H       
  33 H33            0.7730     3.6586    -1.6485 H       
  34 H34            3.8031     3.9390     0.3555 H       
  35 H35            4.0467     5.4874     2.2545 H       
  36 H36            2.0727     6.6526     3.1541 H       
  37 H37           -0.1447     6.2699     2.1541 H       
  38 H38           -0.3875     4.7250     0.2521 H       
  39 H39            3.9620    -0.0110     1.4038 H       
  40 H40            6.3925     0.1521     1.0619 H       
  41 H41            7.2853     1.2668    -0.9412 H       
  42 H42            5.7545     2.2236    -2.6126 H       
  43 H43            3.3208     2.0636    -2.2921 H       
  44 H44           -2.8423     2.1022    -0.3292 H       
  45 H45           -4.2553     2.1786    -2.3433 H       
  46 H46           -0.8816     1.1141    -4.7413 H       
  47 H47            0.5258     1.0454    -2.7231 H       
  48 H48           -1.9986     2.1091    -6.2077 H       
  49 H49           -2.3918     0.3860    -5.9964 H       
  50 H50           -3.5343     1.4633    -6.8345 H       
  51 H51           -0.6504    -1.9892    -2.2438 H       
  52 H52           -1.5512     0.1586     1.8122 H       
  53 H53           -0.3479    -1.1283     2.0655 H       
  54 H54            0.0795     0.5675     2.3970 H       
@<TRIPOS>BOND
   1    1    2 1
   2    1    3 1
   3    1   19 1
   4    1   31 1
   5    2   27 1
   6    2   30 1
   7    2    5 1
   8    3    4 1
   9    3    6 1
  10    4    5 2
  11    4   13 1
  12    6    7 1
  13    6   32 1
  14    6   33 1
  15    7    8 ar
  16    7   12 ar
  17    8    9 ar
  18    8   34 1
  19    9   10 ar
  20    9   35 1
  21   10   11 ar
  22   10   36 1
  23   11   12 ar
  24   11   37 1
  25   12   38 1
  26   13   14 ar
  27   13   18 ar
  28   14   15 ar
  29   14   39 1
  30   15   16 ar
  31   15   40 1
  32   16   17 ar
  33   16   41 1
  34   17   18 ar
  35   17   42 1
  36   18   43 1
  37   19   20 ar
  38   19   24 ar
  39   20   21 ar
  40   20   44 1
  41   21   22 ar
  42   21   45 1
  43   22   23 ar
  44   22   25 1
  45   23   24 ar
  46   23   46 1
  47   24   47 1
  48   25   26 1
  49   26   48 1
  50   26   49 1
  51   26   50 1
  52   27   28 2
  53   27   29 1
  54   29   51 1
  55   30   52 1
  56   30   53 1
  57   30   54 1

#	End of record

