#	Name: ASD05303009
#	Creating user name:	WinNT
#	Creation time:	15. 06. 2019 20:58

#	Modifying user name:	WinNT
#	Modification time:	15. 06. 2019 20:58

#	Program:	/corina/corina34_cracker 3.40 0067  02.08.2006

@<TRIPOS>MOLECULE
ASD05303009
  38   41    0    0    0
SMALL
NO_CHARGES


@<TRIPOS>ATOM
   1 C1            -0.1643     1.1796    -0.8051 C.ar    
   2 C2            -0.0374    -0.0592    -0.2054 C.ar    
   3 C3             1.1999    -0.6757    -0.1440 C.ar    
   4 C4             2.3088    -0.0487    -0.6845 C.ar    
   5 C5             2.1840     1.1986    -1.2927 C.ar    
   6 C6             0.9408     1.8092    -1.3481 C.ar    
   7 O7             3.2672     1.8139    -1.8314 O.3     
   8 N8             3.5750    -0.6584    -0.6226 N.am    
   9 C9             4.5139     1.3785    -1.5180 C.ar    
  10 C10            4.6982     0.1376    -0.9117 C.ar    
  11 C11            5.9717    -0.3035    -0.5979 C.ar    
  12 C12            7.0662     0.4927    -0.8858 C.ar    
  13 C13            6.8869     1.7252    -1.4852 C.ar    
  14 C14            5.6162     2.1697    -1.8016 C.ar    
  15 C15            3.7075    -1.9596    -0.2974 C.2     
  16 O16            2.7439    -2.5908     0.0833 O.2     
  17 C17            5.0525    -2.6304    -0.4065 C.3     
  18 C18            4.8604    -4.1130    -0.5966 C.ar    
  19 C19            4.7531    -4.6383    -1.8707 C.ar    
  20 C20            4.5769    -5.9983    -2.0451 C.ar    
  21 C21            4.5084    -6.8329    -0.9453 C.ar    
  22 C22            4.6166    -6.3077     0.3288 C.ar    
  23 C23            4.7972    -4.9483     0.5030 C.ar    
  24 H24           -1.1322     1.6563    -0.8538 H       
  25 H25           -0.9044    -0.5463     0.2158 H       
  26 H26            1.3000    -1.6435     0.3248 H       
  27 H27            0.8351     2.7768    -1.8161 H       
  28 H28            6.1109    -1.2664    -0.1291 H       
  29 H29            8.0612     0.1510    -0.6417 H       
  30 H30            7.7435     2.3444    -1.7072 H       
  31 H31            5.4826     3.1337    -2.2699 H       
  32 H32            5.5941    -2.2219    -1.2597 H       
  33 H33            5.6226    -2.4519     0.5051 H       
  34 H34            4.8066    -3.9862    -2.7300 H       
  35 H35            4.4924    -6.4086    -3.0405 H       
  36 H36            4.3700    -7.8953    -1.0815 H       
  37 H37            4.5628    -6.9598     1.1880 H       
  38 H38            4.8817    -4.5380     1.4984 H       
@<TRIPOS>BOND
   1    1    2 ar
   2    1    6 ar
   3    1   24 1
   4    2    3 ar
   5    2   25 1
   6    3    4 ar
   7    3   26 1
   8    4    5 ar
   9    4    8 1
  10    5    6 ar
  11    5    7 1
  12    6   27 1
  13    7    9 1
  14    8   10 1
  15    8   15 am
  16    9   10 ar
  17    9   14 ar
  18   10   11 ar
  19   11   12 ar
  20   11   28 1
  21   12   13 ar
  22   12   29 1
  23   13   14 ar
  24   13   30 1
  25   14   31 1
  26   15   16 2
  27   15   17 1
  28   17   18 1
  29   17   32 1
  30   17   33 1
  31   18   19 ar
  32   18   23 ar
  33   19   20 ar
  34   19   34 1
  35   20   21 ar
  36   20   35 1
  37   21   22 ar
  38   21   36 1
  39   22   23 ar
  40   22   37 1
  41   23   38 1

#	End of record

