#	Name: ASD08150116
#	Creating user name:	WinNT
#	Creation time:	15. 06. 2019 21:15

#	Modifying user name:	WinNT
#	Modification time:	15. 06. 2019 21:15

#	Program:	/corina/corina34_cracker 3.40 0067  02.08.2006

@<TRIPOS>MOLECULE
ASD08150116
  52   55    0    0    0
SMALL
NO_CHARGES


@<TRIPOS>ATOM
   1 O1             1.5646     1.6227     0.7411 O.3     
   2 C2             1.7502     0.3004     0.8207 C.2     
   3 N3             1.3983    -0.3641    -0.2885 N.am    
   4 C4             0.9005     0.5990    -1.2826 C.3     
   5 C5             1.0184     1.9587    -0.5673 C.3     
   6 O6             2.1974    -0.2480     1.8083 O.2     
   7 C7             2.7722    -3.6497    -0.6613 C.ar    
   8 N8             1.7023    -4.4126    -0.8219 N.ar    
   9 C9             0.4793    -3.8823    -0.8149 C.ar    
  10 C10            0.3388    -2.5067    -0.6355 C.ar    
  11 C11            1.4890    -1.7399    -0.4701 C.ar    
  12 N12            2.6754    -2.3400    -0.4886 N.ar    
  13 C13           -2.8727    -6.2988    -1.3219 C.ar    
  14 N14           -1.6697    -6.8554    -1.3340 N.ar    
  15 C15           -0.5821    -6.1224    -1.1766 C.ar    
  16 C16           -0.7140    -4.7426    -0.9957 C.ar    
  17 C17           -2.0004    -4.1946    -0.9892 C.ar    
  18 N18           -3.0387    -4.9942    -1.1531 N.ar    
  19 N19            4.0253    -4.2372    -0.6686 N.3     
  20 C20            3.9200    -5.7034    -0.6480 C.3     
  21 C21            5.3233    -6.3115    -0.7171 C.3     
  22 O22            6.1087    -5.8099     0.3677 O.3     
  23 C23            6.2327    -4.3851     0.3781 C.3     
  24 C24            4.8386    -3.7575     0.4583 C.3     
  25 N25           -3.9851    -7.1003    -1.4959 N.pl3   
  26 C26            0.7812    -6.7645    -1.1914 C.3     
  27 F27            0.6534    -8.1232    -1.4990 F       
  28 F28            1.5799    -6.1410    -2.1561 F       
  29 F29            1.3759    -6.6252     0.0673 F       
  30 C30            1.7740     0.5749    -2.5386 C.3     
  31 C31            1.6397    -0.7847    -3.2271 C.3     
  32 O32            2.3461    -0.7615    -4.4691 O.3     
  33 H33           -0.1388     0.3873    -1.5337 H       
  34 H34            0.0375     2.4226    -0.4642 H       
  35 H35            1.6986     2.6170    -1.1077 H       
  36 H36           -0.6385    -2.0472    -0.6254 H       
  37 H37           -2.1429    -3.1329    -0.8519 H       
  38 H38            3.4309    -6.0203     0.2732 H       
  39 H39            3.3355    -6.0384    -1.5049 H       
  40 H40            5.2536    -7.3969    -0.6445 H       
  41 H41            5.7921    -6.0386    -1.6625 H       
  42 H42            6.8207    -4.0773     1.2427 H       
  43 H43            6.7279    -4.0562    -0.5355 H       
  44 H44            4.9247    -2.6720     0.4089 H       
  45 H45            4.3642    -4.0433     1.3971 H       
  46 H46           -3.8791    -8.0559    -1.6245 H       
  47 H47           -4.8719    -6.7072    -1.4894 H       
  48 H48            1.4510     1.3612    -3.2209 H       
  49 H49            2.8149     0.7402    -2.2605 H       
  50 H50            2.0585    -1.5599    -2.5854 H       
  51 H51            0.5865    -0.9960    -3.4121 H       
  52 H52            2.2413    -1.5654    -4.9963 H       
@<TRIPOS>BOND
   1    1    2 1
   2    1    5 1
   3    2    3 am
   4    2    6 2
   5    3    4 1
   6    3   11 1
   7    4    5 1
   8    4   30 1
   9    4   33 1
  10    5   34 1
  11    5   35 1
  12    7    8 ar
  13    7   12 ar
  14    7   19 1
  15    8    9 ar
  16    9   10 ar
  17    9   16 1
  18   10   11 ar
  19   10   36 1
  20   11   12 ar
  21   13   14 ar
  22   13   18 ar
  23   13   25 1
  24   14   15 ar
  25   15   16 ar
  26   15   26 1
  27   16   17 ar
  28   17   18 ar
  29   17   37 1
  30   19   20 1
  31   19   24 1
  32   20   21 1
  33   20   38 1
  34   20   39 1
  35   21   22 1
  36   21   40 1
  37   21   41 1
  38   22   23 1
  39   23   24 1
  40   23   42 1
  41   23   43 1
  42   24   44 1
  43   24   45 1
  44   25   46 1
  45   25   47 1
  46   26   27 1
  47   26   28 1
  48   26   29 1
  49   30   31 1
  50   30   48 1
  51   30   49 1
  52   31   32 1
  53   31   50 1
  54   31   51 1
  55   32   52 1

#	End of record

