#	Name: ASD01812852
#	Creating user name:	WinNT
#	Creation time:	15. 06. 2019 19:29

#	Modifying user name:	WinNT
#	Modification time:	15. 06. 2019 19:29

#	Program:	/corina/corina34_cracker 3.40 0067  02.08.2006

@<TRIPOS>MOLECULE
ASD01812852
  53   57    0    0    0
SMALL
NO_CHARGES


@<TRIPOS>ATOM
   1 N1            -0.0158     1.3146     0.0093 N.ar    
   2 C2             0.0021    -0.0041     0.0020 C.ar    
   3 C3             1.1989    -0.7034    -0.0127 C.ar    
   4 C4             2.3830    -0.0016    -0.0202 C.ar    
   5 C5             2.3451     1.3976    -0.0128 C.ar    
   6 C6             1.0957     2.0332     0.0025 C.ar    
   7 C7             3.8375    -0.3894    -0.0363 C.3     
   8 N8             4.5957     0.8679    -0.0373 N.am    
   9 C9             3.7284     1.8957    -0.0237 C.2     
  10 C10            6.0561     0.9838    -0.0509 C.3     
  11 C11            6.5430     1.0307    -1.4762 C.ar    
  12 C12            6.6709     2.2477    -2.1210 C.ar    
  13 C13            7.1164     2.2965    -3.4264 C.ar    
  14 C14            7.4377     1.1168    -4.0948 C.ar    
  15 C15            7.3069    -0.1065    -3.4403 C.ar    
  16 C16            6.8659    -0.1431    -2.1330 C.ar    
  17 O17            1.0259     3.3855     0.0104 O.3     
  18 O18            4.0434     3.0701    -0.0209 O.2     
  19 C19           -0.2049     3.9605     0.0253 C.ar    
  20 C20           -0.8219     4.2477     1.2382 C.ar    
  21 C21           -2.0720     4.8312     1.2571 C.ar    
  22 C22           -2.7180     5.1341     0.0556 C.ar    
  23 C23           -2.0948     4.8446    -1.1612 C.ar    
  24 C24           -0.8425     4.2658    -1.1725 C.ar    
  25 C25           -4.0157     5.7393     0.0712 C.1     
  26 F26           -0.1966     3.9545     2.3993 F       
  27 N27           -5.0452     6.2195     0.0836 N.1     
  28 C28            7.9166     1.1629    -5.4983 C.ar    
  29 F29           -0.2369     3.9906    -2.3484 F       
  30 C30            8.0534     2.3808    -6.1706 C.ar    
  31 C31            8.5021     2.3785    -7.4751 C.ar    
  32 N32            8.7999     1.2480    -8.0868 N.ar    
  33 C33            8.6849     0.0780    -7.4886 C.ar    
  34 C34            8.2488    -0.0097    -6.1822 C.ar    
  35 C35            9.0405    -1.1792    -8.2396 C.3     
  36 H36           -0.9309    -0.5480     0.0080 H       
  37 H37            1.2023    -1.7834    -0.0178 H       
  38 H38            4.0797    -0.9725     0.8521 H       
  39 H39            4.0624    -0.9635    -0.9351 H       
  40 H40            6.3529     1.8971     0.4647 H       
  41 H41            6.4936     0.1227     0.4544 H       
  42 H42            6.4213     3.1614    -1.6021 H       
  43 H43            7.2156     3.2473    -3.9290 H       
  44 H44            7.5545    -1.0239    -3.9537 H       
  45 H45            6.7683    -1.0903    -1.6234 H       
  46 H46           -2.5508     5.0532     2.1993 H       
  47 H47           -2.5914     5.0770    -2.0917 H       
  48 H48            7.8111     3.3099    -5.6761 H       
  49 H49            8.6106     3.3145    -8.0029 H       
  50 H50            8.1617    -0.9705    -5.6969 H       
  51 H51           10.0955    -1.4072    -8.0875 H       
  52 H52            8.4333    -2.0062    -7.8717 H       
  53 H53            8.8499    -1.0334    -9.3029 H       
@<TRIPOS>BOND
   1    1    2 ar
   2    1    6 ar
   3    2    3 ar
   4    2   36 1
   5    3    4 ar
   6    3   37 1
   7    4    7 1
   8    4    5 ar
   9    5    6 ar
  10    5    9 1
  11    6   17 1
  12    7    8 1
  13    7   38 1
  14    7   39 1
  15    8    9 am
  16    8   10 1
  17    9   18 2
  18   10   11 1
  19   10   40 1
  20   10   41 1
  21   11   12 ar
  22   11   16 ar
  23   12   13 ar
  24   12   42 1
  25   13   14 ar
  26   13   43 1
  27   14   15 ar
  28   14   28 1
  29   15   16 ar
  30   15   44 1
  31   16   45 1
  32   17   19 1
  33   19   20 ar
  34   19   24 ar
  35   20   21 ar
  36   20   26 1
  37   21   22 ar
  38   21   46 1
  39   22   23 ar
  40   22   25 1
  41   23   24 ar
  42   23   47 1
  43   24   29 1
  44   25   27 3
  45   28   30 ar
  46   28   34 ar
  47   30   31 ar
  48   30   48 1
  49   31   32 ar
  50   31   49 1
  51   32   33 ar
  52   33   34 ar
  53   33   35 1
  54   34   50 1
  55   35   51 1
  56   35   52 1
  57   35   53 1

#	End of record

