#	Name: ASD02560385
#	Creating user name:	WinNT
#	Creation time:	15. 06. 2019 20:25

#	Modifying user name:	WinNT
#	Modification time:	15. 06. 2019 20:25

#	Program:	/corina/corina34_cracker 3.40 0067  02.08.2006

@<TRIPOS>MOLECULE
ASD02560385
  40   43    0    0    0
SMALL
NO_CHARGES


@<TRIPOS>ATOM
   1 C1             0.1369     1.3889     1.1091 C.2     
   2 C2             0.1579    -0.0172     1.0966 C.2     
   3 C3             1.2862    -0.6787     0.7700 C.2     
   4 N4             2.4266     0.0062     0.4457 N.pl3   
   5 C5             2.4361     1.3825     0.4488 C.2     
   6 C6             1.2605     2.0845     0.7896 C.2     
   7 C7             3.6779    -0.4095     0.0843 C.2     
   8 C8             4.4313     0.7292    -0.1274 C.2     
   9 N9             3.6439     1.7973     0.1034 N.2     
  10 C10            5.8498     0.7682    -0.5340 C.2     
  11 N11            4.1109    -1.7292    -0.0450 N.3     
  12 C12            2.9871    -2.6667     0.0815 C.3     
  13 C13            6.4210     1.6938    -1.3517 C.2     
  14 C14            3.3265    -3.9705    -0.6437 C.3     
  15 C15            7.7833     1.3482    -1.4669 C.2     
  16 C16            7.9743     0.2420    -0.7230 C.2     
  17 O17            6.8049    -0.1028    -0.1557 O.3     
  18 C18            2.7302    -2.9583     1.5613 C.3     
  19 C19            1.5597    -3.9348     1.6930 C.3     
  20 C20            1.8991    -5.2385     0.9678 C.3     
  21 C21            2.1560    -4.9470    -0.5120 C.3     
  22 H22           -0.7704     1.9147     1.3675 H       
  23 H23           -0.7345    -0.5700     1.3504 H       
  24 H24            1.2907    -1.7587     0.7645 H       
  25 H25            1.2531     3.1644     0.7960 H       
  26 H26            4.5993    -1.8657    -0.9173 H       
  27 H27            2.0944    -2.2259    -0.3623 H       
  28 H28            5.9266     2.5310    -1.8217 H       
  29 H29            3.5095    -3.7628    -1.6980 H       
  30 H30            4.2191    -4.4113    -0.2000 H       
  31 H31            8.5319     1.8713    -2.0434 H       
  32 H32            8.9121    -0.2790    -0.5989 H       
  33 H33            3.6228    -3.3991     2.0051 H       
  34 H34            2.4884    -2.0295     2.0780 H       
  35 H35            1.3767    -4.1425     2.7473 H       
  36 H36            0.6670    -3.4939     1.2493 H       
  37 H37            2.7917    -5.6794     1.4116 H       
  38 H38            1.0652    -5.9342     1.0617 H       
  39 H39            1.2633    -4.5061    -0.9558 H       
  40 H40            2.3978    -5.8758    -1.0287 H       
@<TRIPOS>BOND
   1    1    2 1
   2    1    6 2
   3    1   22 1
   4    2    3 2
   5    2   23 1
   6    3    4 1
   7    3   24 1
   8    4    5 1
   9    4    7 1
  10    5    6 1
  11    5    9 2
  12    6   25 1
  13    7    8 2
  14    7   11 1
  15    8    9 1
  16    8   10 1
  17   10   13 2
  18   10   17 1
  19   11   12 1
  20   11   26 1
  21   12   14 1
  22   12   18 1
  23   12   27 1
  24   13   15 1
  25   13   28 1
  26   14   21 1
  27   14   29 1
  28   14   30 1
  29   15   16 2
  30   15   31 1
  31   16   17 1
  32   16   32 1
  33   18   19 1
  34   18   33 1
  35   18   34 1
  36   19   20 1
  37   19   35 1
  38   19   36 1
  39   20   21 1
  40   20   37 1
  41   20   38 1
  42   21   39 1
  43   21   40 1

#	End of record

