#	Name: ASD00840005
#	Creating user name:	WinNT
#	Creation time:	15. 06. 2019 18:37

#	Modifying user name:	WinNT
#	Modification time:	15. 06. 2019 18:37

#	Program:	/corina/corina34_cracker 3.40 0067  02.08.2006

@<TRIPOS>MOLECULE
ASD00840005
  83   89    0    0    0
SMALL
NO_CHARGES


@<TRIPOS>ATOM
   1 C1             0.2341     0.6581     0.2679 C.3     
   2 C2             0.1350    -0.8359    -0.0472 C.3     
   3 C3             0.7833    -1.1148    -1.4047 C.3     
   4 C4            -0.0166    -0.4151    -2.5053 C.3     
   5 C5             0.6888    -0.5870    -3.8251 C.2     
   6 O6             1.8144    -0.1544    -3.9554 O.2     
   7 N7             0.1007    -1.2089    -4.8618 N.am    
   8 C8             0.7506    -1.6039    -6.1193 C.3     
   9 C9            -0.2924    -2.3783    -6.9533 C.3     
  10 C10           -1.3251    -2.8338    -5.8866 C.3     
  11 C11           -1.3161    -1.6254    -4.9222 C.3     
  12 C12           -1.7312    -2.0790    -3.5196 C.3     
  13 N13           -1.3572    -1.0054    -2.5858 N.am    
  14 C14           -2.4361    -0.6542    -1.8673 C.2     
  15 O15           -2.4521     0.1406    -0.9514 O.2     
  16 C16           -3.6246    -1.4186    -2.3956 C.3     
  17 O17           -3.1432    -2.2649    -3.4463 O.3     
  18 N18           -4.2114    -2.2317    -1.3275 N.am    
  19 C19           -3.4133    -2.9361    -0.5009 C.2     
  20 O20           -2.2163    -2.9664    -0.6938 O.2     
  21 C21           -4.0082    -3.6860     0.6630 C.3     
  22 C22           -2.8960    -4.3992     1.4404 C.3     
  23 N23           -3.4897    -5.0365     2.6196 N.3     
  24 C24           -2.5282    -5.9348     3.2727 C.3     
  25 C25           -4.0367    -4.0769     3.5702 C.3     
  26 C26           -4.6991    -2.9019     2.9009 C.2     
  27 C27           -4.6921    -2.7197     1.5925 C.2     
  28 C28           -5.3775    -1.9138     3.7618 C.ar    
  29 C29           -5.6651    -0.5875     3.5350 C.ar    
  30 C30           -6.3145     0.1566     4.5181 C.ar    
  31 C31           -6.7077    -0.3496     5.7515 C.ar    
  32 C32           -6.4347    -1.6917     6.0134 C.ar    
  33 C33           -5.7877    -2.4216     5.0128 C.ar    
  34 C34           -5.6047    -3.7930     5.4730 C.2     
  35 C35           -4.9474    -4.8034     4.5696 C.3     
  36 C36           -6.1235    -3.8207     6.6975 C.2     
  37 N37           -6.6224    -2.5723     7.0364 N.pl3   
  38 Br38          -6.1732    -5.3446     7.8161 Br      
  39 C39           -4.6692    -0.4454    -2.9458 C.3     
  40 C40           -5.8434    -1.2338    -3.5294 C.3     
  41 C41           -5.1713     0.4560    -1.8161 C.3     
  42 O42           -1.0477    -3.2857    -3.1750 O.3     
  43 C43            0.8595    -1.6351     1.0378 C.3     
  44 H44            1.2827     0.9542     0.2983 H       
  45 H45           -0.2820     1.2274    -0.5051 H       
  46 H46           -0.2278     0.8568     1.2350 H       
  47 H47           -0.9135    -1.1320    -0.0776 H       
  48 H48            1.8061    -0.7378    -1.4033 H       
  49 H49            0.7924    -2.1891    -1.5891 H       
  50 H50           -0.1007     0.6468    -2.2740 H       
  51 H51            1.0751    -0.7167    -6.6632 H       
  52 H52            1.6065    -2.2451    -5.9085 H       
  53 H53           -0.7609    -1.7239    -7.6884 H       
  54 H54            0.1654    -3.2400    -7.4391 H       
  55 H55           -2.3109    -2.9737    -6.3303 H       
  56 H56           -0.9925    -3.7407    -5.3815 H       
  57 H57           -1.9504    -0.8198    -5.2920 H       
  58 H58           -5.1744    -2.2632    -1.2153 H       
  59 H59           -4.7288    -4.4180     0.2984 H       
  60 H60           -2.4348    -5.1574     0.8075 H       
  61 H61           -2.1455    -3.6739     1.7547 H       
  62 H62           -1.6859    -5.3540     3.6487 H       
  63 H63           -3.0153    -6.4473     4.1022 H       
  64 H64           -2.1698    -6.6696     2.5517 H       
  65 H65           -3.1973    -3.6858     4.1451 H       
  66 H66           -5.1900    -1.8551     1.1790 H       
  67 H67           -5.3891    -0.1252     2.5988 H       
  68 H68           -6.5258     1.1947     4.3082 H       
  69 H69           -7.2062     0.2731     6.4795 H       
  70 H70           -5.7129    -5.3583     4.0271 H       
  71 H71           -4.3529    -5.4937     5.1680 H       
  72 H72           -7.0457    -2.3563     7.8820 H       
  73 H73           -4.2190     0.1674    -3.7268 H       
  74 H74           -5.4856    -1.8760    -4.3342 H       
  75 H75           -6.2935    -1.8466    -2.7484 H       
  76 H76           -6.5875    -0.5405    -3.9214 H       
  77 H77           -4.3552     1.0877    -1.4653 H       
  78 H78           -5.9831     1.0829    -2.1851 H       
  79 H79           -5.5334    -0.1603    -0.9932 H       
  80 H80           -1.2678    -3.6253    -2.2967 H       
  81 H81            0.3977    -1.4363     2.0049 H       
  82 H82            0.7889    -2.6994     0.8133 H       
  83 H83            1.9081    -1.3389     1.0682 H       
@<TRIPOS>BOND
   1    1    2 1
   2    1   44 1
   3    1   45 1
   4    1   46 1
   5    2    3 1
   6    2   43 1
   7    2   47 1
   8    3    4 1
   9    3   48 1
  10    3   49 1
  11    4    5 1
  12    4   13 1
  13    4   50 1
  14    5    6 2
  15    5    7 am
  16    7    8 1
  17    7   11 1
  18    8    9 1
  19    8   51 1
  20    8   52 1
  21    9   10 1
  22    9   53 1
  23    9   54 1
  24   10   11 1
  25   10   55 1
  26   10   56 1
  27   11   12 1
  28   11   57 1
  29   12   13 1
  30   12   42 1
  31   12   17 1
  32   13   14 am
  33   14   15 2
  34   14   16 1
  35   16   17 1
  36   16   18 1
  37   16   39 1
  38   18   19 am
  39   18   58 1
  40   19   20 2
  41   19   21 1
  42   21   22 1
  43   21   27 1
  44   21   59 1
  45   22   23 1
  46   22   60 1
  47   22   61 1
  48   23   24 1
  49   23   25 1
  50   24   62 1
  51   24   63 1
  52   24   64 1
  53   25   26 1
  54   25   35 1
  55   25   65 1
  56   26   27 2
  57   26   28 1
  58   27   66 1
  59   28   29 ar
  60   28   33 ar
  61   29   30 ar
  62   29   67 1
  63   30   31 ar
  64   30   68 1
  65   31   32 ar
  66   31   69 1
  67   32   33 ar
  68   32   37 1
  69   33   34 1
  70   34   35 1
  71   34   36 2
  72   35   70 1
  73   35   71 1
  74   36   37 1
  75   36   38 1
  76   37   72 1
  77   39   40 1
  78   39   41 1
  79   39   73 1
  80   40   74 1
  81   40   75 1
  82   40   76 1
  83   41   77 1
  84   41   78 1
  85   41   79 1
  86   42   80 1
  87   43   81 1
  88   43   82 1
  89   43   83 1

#	End of record

