#	Name: ASD03730251
#	Creating user name:	WinNT
#	Creation time:	15. 06. 2019 20:44

#	Modifying user name:	WinNT
#	Modification time:	15. 06. 2019 20:44

#	Program:	/corina/corina34_cracker 3.40 0067  02.08.2006

@<TRIPOS>MOLECULE
ASD03730251
  62   68    0    0    0
SMALL
NO_CHARGES


@<TRIPOS>ATOM
   1 O1             1.0159     1.9218    -1.4803 O.3     
   2 C2             1.0003     0.4880    -1.6103 C.3     
   3 O3             2.3719     0.1549    -1.8945 O.3     
   4 C4             3.1147     1.1499    -1.3263 C.ar    
   5 C5             2.2809     2.2368    -1.0737 C.ar    
   6 C6             4.4567     1.2168    -0.9972 C.ar    
   7 C7             4.9837     2.3659    -0.4158 C.ar    
   8 C8             4.1432     3.4493    -0.1782 C.ar    
   9 C9             2.8035     3.3834    -0.4995 C.ar    
  10 O10            6.2567     2.6288    -0.0023 O.3     
  11 C11            4.9998     4.5337     0.4186 C.3     
  12 C12            6.4287     4.0529     0.1308 C.3     
  13 N13            4.3724     6.6950     0.8149 N.am    
  14 C14            4.7272     5.8766    -0.1956 C.2     
  15 C15            4.7550     4.7121     1.8875 C.ar    
  16 C16            4.8348     3.8632     2.9840 C.ar    
  17 C17            4.5351     4.3464     4.2587 C.ar    
  18 C18            4.1614     5.6657     4.4188 C.ar    
  19 C19            4.0828     6.5086     3.3288 C.ar    
  20 C20            4.3799     6.0406     2.0497 C.ar    
  21 O21            4.8103     6.1678    -1.3701 O.2     
  22 C22            4.0204     8.1062     0.6394 C.3     
  23 C23            2.5156     8.2295     0.3916 C.3     
  24 C24            2.1480     9.7033     0.2083 C.3     
  25 C25            0.6432     9.8266    -0.0394 C.3     
  26 C26            0.2756    11.3004    -0.2228 C.3     
  27 C27            5.8777    -0.2161     2.4601 C.ar    
  28 N28            4.6295     0.1779     2.5591 N.ar    
  29 C29            4.2858     1.4459     2.7229 C.ar    
  30 C30            5.2365     2.4489     2.8010 C.ar    
  31 C31            6.6033     2.0893     2.7011 C.ar    
  32 C32            7.6304     3.0371     2.7699 C.ar    
  33 C33            8.9275     2.6301     2.6678 C.ar    
  34 C34            9.2454     1.2846     2.4960 C.ar    
  35 C35            8.2708     0.3359     2.4249 C.ar    
  36 C36            6.9238     0.7190     2.5262 C.ar    
  37 H37            0.6782     0.0225    -0.6788 H       
  38 H38            0.3540     0.1852    -2.4342 H       
  39 H39            5.0997     0.3713    -1.1926 H       
  40 H40            2.1603     4.2284    -0.3026 H       
  41 H41            7.0911     4.2867     0.9643 H       
  42 H42            6.8036     4.4860    -0.7965 H       
  43 H43            4.5950     3.6915     5.1154 H       
  44 H44            3.9284     6.0409     5.4043 H       
  45 H45            3.7890     7.5385     3.4678 H       
  46 H46            4.2873     8.6618     1.5384 H       
  47 H47            4.5636     8.5127    -0.2137 H       
  48 H48            2.2487     7.6739    -0.5073 H       
  49 H49            1.9724     7.8229     1.2447 H       
  50 H50            2.4149    10.2589     1.1073 H       
  51 H51            2.6912    10.1098    -0.6448 H       
  52 H52            0.3763     9.2710    -0.9384 H       
  53 H53            0.1000     9.4200     0.8137 H       
  54 H54           -0.7964    11.3882    -0.3993 H       
  55 H55            0.5426    11.8560     0.6762 H       
  56 H56            0.8188    11.7070    -1.0759 H       
  57 H57            6.1017    -1.2648     2.3317 H       
  58 H58            3.2396     1.7037     2.7970 H       
  59 H59            7.3973     4.0832     2.9025 H       
  60 H60            9.7204     3.3616     2.7205 H       
  61 H61           10.2812     0.9891     2.4176 H       
  62 H62            8.5321    -0.7035     2.2915 H       
@<TRIPOS>BOND
   1    1    2 1
   2    1    5 1
   3    2    3 1
   4    2   37 1
   5    2   38 1
   6    3    4 1
   7    4    5 ar
   8    4    6 ar
   9    5    9 ar
  10    6    7 ar
  11    6   39 1
  12    7    8 ar
  13    7   10 1
  14    8    9 ar
  15    8   11 1
  16    9   40 1
  17   10   12 1
  18   11   12 1
  19   11   14 1
  20   11   15 1
  21   12   41 1
  22   12   42 1
  23   13   14 am
  24   13   20 1
  25   13   22 1
  26   14   21 2
  27   15   16 ar
  28   15   20 ar
  29   16   17 ar
  30   16   30 1
  31   17   18 ar
  32   17   43 1
  33   18   19 ar
  34   18   44 1
  35   19   20 ar
  36   19   45 1
  37   22   23 1
  38   22   46 1
  39   22   47 1
  40   23   24 1
  41   23   48 1
  42   23   49 1
  43   24   25 1
  44   24   50 1
  45   24   51 1
  46   25   26 1
  47   25   52 1
  48   25   53 1
  49   26   54 1
  50   26   55 1
  51   26   56 1
  52   27   28 ar
  53   27   36 ar
  54   27   57 1
  55   28   29 ar
  56   29   30 ar
  57   29   58 1
  58   30   31 ar
  59   31   32 ar
  60   31   36 ar
  61   32   33 ar
  62   32   59 1
  63   33   34 ar
  64   33   60 1
  65   34   35 ar
  66   34   61 1
  67   35   36 ar
  68   35   62 1

#	End of record

