#	Name: ASD01410190
#	Creating user name:	WinNT
#	Creation time:	15. 06. 2019 19:16

#	Modifying user name:	WinNT
#	Modification time:	15. 06. 2019 19:16

#	Program:	/corina/corina34_cracker 3.40 0067  02.08.2006

@<TRIPOS>MOLECULE
ASD01410190
  46   49    0    0    0
SMALL
NO_CHARGES


@<TRIPOS>ATOM
   1 C1             0.0025     1.3764    -0.2906 C.ar    
   2 C2             0.0105    -0.0142    -0.0368 C.ar    
   3 C3            -1.1886    -0.7346    -0.1183 C.ar    
   4 C4            -2.3326    -0.0565    -0.4439 C.ar    
   5 C5            -2.2731     1.3201    -0.6832 C.ar    
   6 N6            -1.1293     1.9858    -0.5965 N.ar    
   7 N7             1.2964     1.8211    -0.1423 N.pl3   
   8 C8             2.0997     0.7546     0.1934 C.2     
   9 C9             1.3455    -0.3715     0.2643 C.2     
  10 C10            1.1249    -2.2596     1.8567 C.3     
  11 C11            1.6282    -3.6629     2.2004 C.3     
  12 C12            1.3405    -4.6083     1.0323 C.3     
  13 C13            2.0568    -4.1025    -0.2214 C.3     
  14 C14            1.5536    -2.6991    -0.5652 C.3     
  15 C15            1.8412    -1.7538     0.6029 C.3     
  16 C16           -3.5104     2.0485    -1.0349 C.2     
  17 O17           -4.5652     1.4513    -1.1136 O.2     
  18 O18           -3.4682     3.3748    -1.2681 O.3     
  19 C19            5.6131    -0.2234     0.4322 C.ar    
  20 C20            6.2416     0.9233     0.8827 C.ar    
  21 C21            5.4885     2.0652     1.1190 C.ar    
  22 C22            4.1244     2.0155     0.8936 C.ar    
  23 C23            3.5556     0.8250     0.4388 C.ar    
  24 N24            4.3125    -0.2454     0.2252 N.ar    
  25 C25            1.7461     3.2048    -0.3143 C.3     
  26 H26           -1.2098    -1.7977     0.0705 H       
  27 H27           -3.2740    -0.5809    -0.5157 H       
  28 H28            0.0510    -2.2936     1.6728 H       
  29 H29            1.3298    -1.5861     2.6889 H       
  30 H30            2.7020    -3.6289     2.3843 H       
  31 H31            1.1178    -4.0233     3.0936 H       
  32 H32            1.6990    -5.6080     1.2772 H       
  33 H33            0.2666    -4.6423     0.8484 H       
  34 H34            3.1307    -4.0684    -0.0375 H       
  35 H35            1.8519    -4.7759    -1.0536 H       
  36 H36            2.0639    -2.3387    -1.4584 H       
  37 H37            0.4797    -2.7331    -0.7491 H       
  38 H38            2.9151    -1.7197     0.7868 H       
  39 H39           -4.3028     3.8075    -1.4947 H       
  40 H40            6.1975    -1.1118     0.2433 H       
  41 H41            7.3086     0.9301     1.0494 H       
  42 H42            5.9571     2.9723     1.4713 H       
  43 H43            3.5084     2.8854     1.0675 H       
  44 H44            1.7779     3.6998     0.6563 H       
  45 H45            2.7417     3.2107    -0.7579 H       
  46 H46            1.0534     3.7332    -0.9691 H       
@<TRIPOS>BOND
   1    1    2 ar
   2    1    7 1
   3    1    6 ar
   4    2    3 ar
   5    2    9 1
   6    3    4 ar
   7    3   26 1
   8    4    5 ar
   9    4   27 1
  10    5    6 ar
  11    5   16 1
  12    7    8 1
  13    7   25 1
  14    8    9 2
  15    8   23 1
  16    9   15 1
  17   10   11 1
  18   10   15 1
  19   10   28 1
  20   10   29 1
  21   11   12 1
  22   11   30 1
  23   11   31 1
  24   12   13 1
  25   12   32 1
  26   12   33 1
  27   13   14 1
  28   13   34 1
  29   13   35 1
  30   14   15 1
  31   14   36 1
  32   14   37 1
  33   15   38 1
  34   16   17 2
  35   16   18 1
  36   18   39 1
  37   19   20 ar
  38   19   24 ar
  39   19   40 1
  40   20   21 ar
  41   20   41 1
  42   21   22 ar
  43   21   42 1
  44   22   23 ar
  45   22   43 1
  46   23   24 ar
  47   25   44 1
  48   25   45 1
  49   25   46 1

#	End of record

