#	Name: ASD00311287
#	Creating user name:	WinNT
#	Creation time:	15. 06. 2019 18:34

#	Modifying user name:	WinNT
#	Modification time:	15. 06. 2019 18:34

#	Program:	/corina/corina34_cracker 3.40 0067  02.08.2006

@<TRIPOS>MOLECULE
ASD00311287
  40   43    0    0    0
SMALL
NO_CHARGES


@<TRIPOS>ATOM
   1 C1            -0.0167     1.3777     0.0096 C.2     
   2 C2             0.0021    -0.0041     0.0020 C.2     
   3 C3             1.2591    -0.6766    -0.0136 C.2     
   4 C4             2.4314     0.0671    -0.0208 C.2     
   5 C5             2.3574     1.4748    -0.0125 C.2     
   6 N6             1.1649     2.0903     0.0022 N.am    
   7 C7            -1.3430    -0.5750     0.0118 C.2     
   8 C8            -2.3223     0.3255     0.0260 C.2     
   9 S9            -1.6794     1.9559     0.0358 S.3     
  10 O10            3.3824     2.1369    -0.0183 O.2     
  11 C11            3.7480    -0.6124    -0.0365 C.ar    
  12 C12            4.5928    -0.4742    -1.1375 C.ar    
  13 C13            5.8177    -1.1083    -1.1487 C.ar    
  14 C14            6.2098    -1.8831    -0.0659 C.ar    
  15 C15            5.3716    -2.0229     1.0316 C.ar    
  16 C16            4.1478    -1.3871     1.0521 C.ar    
  17 O17            7.4175    -2.5070    -0.0805 O.3     
  18 C18            7.7580    -3.2885     1.0664 C.3     
  19 C19           -1.5954    -2.0357     0.0059 C.ar    
  20 C20           -2.4694    -2.5981     0.9352 C.ar    
  21 C21           -2.7011    -3.9582     0.9258 C.ar    
  22 C22           -2.0665    -4.7648    -0.0048 C.ar    
  23 C23           -1.1971    -4.2106    -0.9302 C.ar    
  24 C24           -0.9638    -2.8507    -0.9326 C.ar    
  25 F25           -2.2958    -6.0962    -0.0096 F       
  26 O26            1.3092    -2.0293    -0.0209 O.3     
  27 H27            1.1329     3.0597     0.0073 H       
  28 H28           -3.3748     0.0836     0.0344 H       
  29 H29            4.2881     0.1282    -1.9805 H       
  30 H30            6.4722    -1.0020    -2.0011 H       
  31 H31            5.6800    -2.6266     1.8723 H       
  32 H32            3.4981    -1.4923     1.9084 H       
  33 H33            7.7683    -2.6510     1.9504 H       
  34 H34            7.0208    -4.0805     1.1982 H       
  35 H35            8.7444    -3.7301     0.9253 H       
  36 H36           -2.9641    -1.9702     1.6614 H       
  37 H37           -3.3780    -4.3948     1.6452 H       
  38 H38           -0.7043    -4.8434    -1.6535 H       
  39 H39           -0.2896    -2.4188    -1.6575 H       
  40 H40            2.2066    -2.3896    -0.0314 H       
@<TRIPOS>BOND
   1    1    2 2
   2    1    6 1
   3    1    9 1
   4    2    3 1
   5    2    7 1
   6    3    4 2
   7    3   26 1
   8    4    5 1
   9    4   11 1
  10    5    6 am
  11    5   10 2
  12    6   27 1
  13    7    8 2
  14    7   19 1
  15    8    9 1
  16    8   28 1
  17   11   12 ar
  18   11   16 ar
  19   12   13 ar
  20   12   29 1
  21   13   14 ar
  22   13   30 1
  23   14   15 ar
  24   14   17 1
  25   15   16 ar
  26   15   31 1
  27   16   32 1
  28   17   18 1
  29   18   33 1
  30   18   34 1
  31   18   35 1
  32   19   20 ar
  33   19   24 ar
  34   20   21 ar
  35   20   36 1
  36   21   22 ar
  37   21   37 1
  38   22   23 ar
  39   22   25 1
  40   23   24 ar
  41   23   38 1
  42   24   39 1
  43   26   40 1

#	End of record

