#	Name: ASD01140241
#	Creating user name:	WinNT
#	Creation time:	15. 06. 2019 19:00

#	Modifying user name:	WinNT
#	Modification time:	15. 06. 2019 19:00

#	Program:	/corina/corina34_cracker 3.40 0067  02.08.2006

@<TRIPOS>MOLECULE
ASD01140241
  95  100    0    0    0
SMALL
NO_CHARGES


@<TRIPOS>ATOM
   1 C1            -0.8391     2.6075    -0.3044 C.ar    
   2 C2            -1.0479     1.2358    -0.4755 C.ar    
   3 C3             0.0410     0.3871    -0.6279 C.ar    
   4 C4             1.3456     0.8971    -0.6110 C.ar    
   5 C5             1.5441     2.2670    -0.4409 C.ar    
   6 C6             2.4517    -0.0600    -0.7739 C.2     
   7 N7             3.5581    -0.0244    -0.1202 N.2     
   8 C8             3.8333     1.0106     0.8757 C.3     
   9 C9             3.8704     2.3486     0.1891 C.2     
  10 N10            2.7984     2.8552    -0.4149 N.am    
  11 C11           -2.3789     0.7078    -0.4933 C.1     
  12 C12            2.9569     4.1362    -1.1078 C.3     
  13 O13            4.9046     2.9822     0.1860 O.2     
  14 O14            1.8718     5.7018    10.0412 O.2     
  15 C15            0.9104     5.0067     9.7894 C.2     
  16 N16           -0.2227     5.5849     9.3986 N.am    
  17 C17           -0.2533     7.0490     9.3569 C.3     
  18 C18            1.0318     3.5130     9.9211 C.3     
  19 N19            0.1149     3.0542    10.9639 N.2     
  20 C20           -1.1595     3.1818    10.8515 C.2     
  21 C21           -1.8476     3.7789     9.6957 C.ar    
  22 C22           -1.3758     4.9121     9.0277 C.ar    
  23 C23           -3.0276     3.1645     9.2569 C.ar    
  24 C24           -3.7247     3.6760     8.1700 C.ar    
  25 C25           -3.2445     4.8112     7.5103 C.ar    
  26 C26           -4.9302     3.0429     7.7266 C.1     
  27 C27           -3.4701     0.2749    -0.5078 C.1     
  28 C28           -5.9185     2.5239     7.3631 C.1     
  29 C29           -1.9984     2.6904    11.9693 C.ar    
  30 C30           -1.5107     1.7087    12.8316 C.ar    
  31 C31           -2.2966     1.2553    13.8712 C.ar    
  32 C32           -3.5661     1.7723    14.0587 C.ar    
  33 C33           -4.0554     2.7463    13.2067 C.ar    
  34 C34           -3.2768     3.2118    12.1670 C.ar    
  35 C35            2.2768    -1.1466    -1.7657 C.ar    
  36 C36            1.3830    -0.9905    -2.8249 C.ar    
  37 C37            1.2248    -2.0059    -3.7457 C.ar    
  38 C38            1.9502    -3.1772    -3.6195 C.ar    
  39 C39            2.8379    -3.3381    -2.5707 C.ar    
  40 C40            3.0094    -2.3274    -1.6471 C.ar    
  41 C41            1.8753     1.5282     4.0761 C.3     
  42 C42            2.3115     2.2069     5.3761 C.3     
  43 C43            1.1607     2.1665     6.3835 C.3     
  44 C44            0.4395     3.1104    -0.2879 C.ar    
  45 C45           -2.0877     5.4147     7.9344 C.ar    
  46 Si46          -5.2361    -0.4256    -0.5313 Si      
  47 C47           -5.1688    -2.2713    -0.7750 C.3     
  48 C48           -6.0774    -0.0431     1.0863 C.3     
  49 C49           -6.1936     0.3508    -1.9281 C.3     
  50 C50            2.7462     1.0087     1.9194 C.2     
  51 O51            2.9675     1.5665     3.1200 O.3     
  52 O52            1.6753     0.5051     1.6753 O.2     
  53 C53            0.6736     2.8599     8.6110 C.2     
  54 O54            1.5746     2.8107     7.6172 O.3     
  55 O55           -0.4245     2.3807     8.4551 O.2     
  56 H56           -1.6826     3.2721    -0.1895 H       
  57 H57           -0.1192    -0.6728    -0.7600 H       
  58 H58            4.7960     0.8158     1.3483 H       
  59 H59            3.9865     4.4792    -1.0063 H       
  60 H60            2.7183     4.0100    -2.1639 H       
  61 H61            2.2837     4.8725    -0.6687 H       
  62 H62            0.7137     7.4417     9.6713 H       
  63 H63           -0.4663     7.3792     8.3402 H       
  64 H64           -1.0299     7.4155    10.0282 H       
  65 H65            2.0545     3.2523    10.1935 H       
  66 H66           -3.3974     2.2873     9.7669 H       
  67 H67           -3.7820     5.2119     6.6637 H       
  68 H68           -6.8024     2.0597     7.0379 H       
  69 H69           -0.5201     1.3039    12.6857 H       
  70 H70           -1.9201     0.4952    14.5396 H       
  71 H71           -4.1778     1.4138    14.8734 H       
  72 H72           -5.0472     3.1460    13.3581 H       
  73 H73           -3.6598     3.9721    11.5025 H       
  74 H74            0.8156    -0.0769    -2.9241 H       
  75 H75            0.5330    -1.8862    -4.5664 H       
  76 H76            1.8227    -3.9693    -4.3425 H       
  77 H77            3.4012    -4.2548    -2.4772 H       
  78 H78            3.7028    -2.4541    -0.8288 H       
  79 H79            1.6069     0.4916     4.2797 H       
  80 H80            1.0131     2.0525     3.6640 H       
  81 H81            3.1737     1.6826     5.7882 H       
  82 H82            2.5799     3.2435     5.1724 H       
  83 H83            0.2985     2.6908     5.9714 H       
  84 H84            0.8923     1.1299     6.5872 H       
  85 H85            0.5932     4.1711    -0.1555 H       
  86 H86           -1.7221     6.2895     7.4171 H       
  87 H87           -4.6086    -2.7256     0.0422 H       
  88 H88           -6.1819    -2.6732    -0.7885 H       
  89 H89           -4.6765    -2.4951    -1.7214 H       
  90 H90           -6.1168     1.0369     1.2290 H       
  91 H91           -7.0906    -0.4449     1.0729 H       
  92 H92           -5.5172    -0.4973     1.9036 H       
  93 H93           -5.7013     0.1270    -2.8745 H       
  94 H94           -7.2067    -0.0510    -1.9416 H       
  95 H95           -6.2329     1.4307    -1.7855 H       
@<TRIPOS>BOND
   1    1    2 ar
   2    1   44 ar
   3    1   56 1
   4    2    3 ar
   5    2   11 1
   6    3    4 ar
   7    3   57 1
   8    4    5 ar
   9    4    6 1
  10    5   10 1
  11    5   44 ar
  12    6    7 2
  13    6   35 1
  14    7    8 1
  15    8    9 1
  16    8   50 1
  17    8   58 1
  18    9   10 am
  19    9   13 2
  20   10   12 1
  21   11   27 3
  22   12   59 1
  23   12   60 1
  24   12   61 1
  25   14   15 2
  26   15   16 am
  27   15   18 1
  28   16   17 1
  29   16   22 1
  30   17   62 1
  31   17   63 1
  32   17   64 1
  33   18   19 1
  34   18   53 1
  35   18   65 1
  36   19   20 2
  37   20   21 1
  38   20   29 1
  39   21   22 ar
  40   21   23 ar
  41   22   45 ar
  42   23   24 ar
  43   23   66 1
  44   24   25 ar
  45   24   26 1
  46   25   45 ar
  47   25   67 1
  48   26   28 3
  49   27   46 1
  50   28   68 1
  51   29   30 ar
  52   29   34 ar
  53   30   31 ar
  54   30   69 1
  55   31   32 ar
  56   31   70 1
  57   32   33 ar
  58   32   71 1
  59   33   34 ar
  60   33   72 1
  61   34   73 1
  62   35   36 ar
  63   35   40 ar
  64   36   37 ar
  65   36   74 1
  66   37   38 ar
  67   37   75 1
  68   38   39 ar
  69   38   76 1
  70   39   40 ar
  71   39   77 1
  72   40   78 1
  73   41   42 1
  74   41   51 1
  75   41   79 1
  76   41   80 1
  77   42   43 1
  78   42   81 1
  79   42   82 1
  80   43   54 1
  81   43   83 1
  82   43   84 1
  83   44   85 1
  84   45   86 1
  85   46   47 1
  86   46   48 1
  87   46   49 1
  88   47   87 1
  89   47   88 1
  90   47   89 1
  91   48   90 1
  92   48   91 1
  93   48   92 1
  94   49   93 1
  95   49   94 1
  96   49   95 1
  97   50   51 1
  98   50   52 2
  99   53   54 1
 100   53   55 2

#	End of record

