#	Name: ASD01209064
#	Creating user name:	WinNT
#	Creation time:	15. 06. 2019 19:10

#	Modifying user name:	WinNT
#	Modification time:	15. 06. 2019 19:10

#	Program:	/corina/corina34_cracker 3.40 0067  02.08.2006

@<TRIPOS>MOLECULE
ASD01209064
  46   47    0    0    0
SMALL
NO_CHARGES


@<TRIPOS>ATOM
   1 C1            -0.0167     1.3790     0.0096 C.ar    
   2 C2             0.0021    -0.0041     0.0020 C.ar    
   3 C3             1.2063    -0.6844    -0.0127 C.ar    
   4 C4             2.3965     0.0144    -0.0202 C.ar    
   5 C5             2.3835     1.4076    -0.0131 C.ar    
   6 C6             1.1676     2.0878     0.0021 C.ar    
   7 S7            -1.5136    -0.9026     0.0116 S.o2    
   8 O8            -1.1786    -2.1486     0.6070 O.2     
   9 O9            -2.4400    -0.0204     0.6305 O.2     
  10 C10            3.6604     2.1645    -0.0212 C.2     
  11 C11            4.5774     2.0707     1.1232 C.2     
  12 C12            4.2215     1.2061     2.3051 C.3     
  13 O13            5.6207     2.6892     1.1166 O.2     
  14 C14            5.5006     0.7762     3.0261 C.3     
  15 C15            3.3349     1.9983     3.2680 C.3     
  16 C16            3.9782     2.9366    -1.0765 C.2     
  17 C17            3.0377     3.0328    -2.2502 C.3     
  18 C18            2.5928     4.4921    -2.4508 C.3     
  19 C19            3.0635     4.9065    -3.8603 C.3     
  20 C20            3.1979     3.5664    -4.6251 C.3     
  21 C21            3.7633     2.6114    -3.5447 C.3     
  22 C22           -1.9197    -1.1239    -1.7424 C.3     
  23 H23           -0.9598     1.9053     0.0169 H       
  24 H24            1.2153    -1.7643    -0.0178 H       
  25 H25            3.3363    -0.5177    -0.0313 H       
  26 H26            1.1519     3.1676     0.0074 H       
  27 H27            3.6844     0.3225     1.9602 H       
  28 H28            6.0378     1.6598     3.3710 H       
  29 H29            5.2432     0.1508     3.8809 H       
  30 H30            6.1322     0.2118     2.3401 H       
  31 H31            2.4236     2.3046     2.7544 H       
  32 H32            3.0775     1.3730     4.1228 H       
  33 H33            3.8721     2.8819     3.6129 H       
  34 H34            4.9072     3.4873    -1.0824 H       
  35 H35            2.1682     2.3967    -2.0846 H       
  36 H36            1.5072     4.5640    -2.3835 H       
  37 H37            3.0570     5.1307    -1.6993 H       
  38 H38            2.3208     5.5455    -4.3379 H       
  39 H39            4.0268     5.4137    -3.8070 H       
  40 H40            2.2247     3.2216    -4.9744 H       
  41 H41            3.8954     3.6647    -5.4570 H       
  42 H42            4.8397     2.7479    -3.4404 H       
  43 H43            3.5314     1.5755    -3.7920 H       
  44 H44           -1.1205    -1.6794    -2.2331 H       
  45 H45           -2.8546    -1.6771    -1.8319 H       
  46 H46           -2.0280    -0.1483    -2.2162 H       
@<TRIPOS>BOND
   1    1    2 ar
   2    1    6 ar
   3    1   23 1
   4    2    3 ar
   5    2    7 1
   6    3    4 ar
   7    3   24 1
   8    4    5 ar
   9    4   25 1
  10    5    6 ar
  11    5   10 1
  12    6   26 1
  13    7    8 2
  14    7    9 2
  15    7   22 1
  16   10   11 1
  17   10   16 2
  18   11   12 1
  19   11   13 2
  20   12   14 1
  21   12   15 1
  22   12   27 1
  23   14   28 1
  24   14   29 1
  25   14   30 1
  26   15   31 1
  27   15   32 1
  28   15   33 1
  29   16   17 1
  30   16   34 1
  31   17   18 1
  32   17   21 1
  33   17   35 1
  34   18   19 1
  35   18   36 1
  36   18   37 1
  37   19   20 1
  38   19   38 1
  39   19   39 1
  40   20   21 1
  41   20   40 1
  42   20   41 1
  43   21   42 1
  44   21   43 1
  45   22   44 1
  46   22   45 1
  47   22   46 1

#	End of record

