#	Name: ASD04910502
#	Creating user name:	WinNT
#	Creation time:	15. 06. 2019 20:56

#	Modifying user name:	WinNT
#	Modification time:	15. 06. 2019 20:56

#	Program:	/corina/corina34_cracker 3.40 0067  02.08.2006

@<TRIPOS>MOLECULE
ASD04910502
  64   66    0    0    0
SMALL
NO_CHARGES


@<TRIPOS>ATOM
   1 C1            -0.0166     1.3754     0.0096 C.ar    
   2 C2             0.0021    -0.0041     0.0020 C.ar    
   3 C3             1.2078    -0.6825    -0.0131 C.ar    
   4 C4             2.4019     0.0164    -0.0208 C.ar    
   5 C5             2.3972     1.3959    -0.0129 C.ar    
   6 C6             1.1843     2.0865     0.0020 C.ar    
   7 C7             1.1718     3.5649     0.0105 C.2     
   8 N8            -0.0010     4.2288     0.0248 N.am    
   9 O9             2.2193     4.1816     0.0046 O.2     
  10 C10            1.2206    -2.1895    -0.0209 C.3     
  11 C11            1.4615    -2.6902    -1.4464 C.3     
  12 N12            2.2913    -2.6732     0.8542 N.pl3   
  13 C13            1.3507    -4.2158    -1.4766 C.3     
  14 C14            2.2035    -3.9449     1.4293 C.ar    
  15 C15            3.2168    -4.4139     2.2629 C.ar    
  16 C16            3.0873    -5.6784     2.8097 C.ar    
  17 C17            1.9598    -6.4330     2.5118 C.ar    
  18 N18            1.0168    -5.9563     1.7157 N.ar    
  19 C19            1.1028    -4.7541     1.1816 C.ar    
  20 N20            1.8198    -7.7132     3.0601 N.pl3   
  21 C21            0.7777    -8.5604     2.8587 C.2     
  22 C22            1.0259    -9.6893     3.5621 C.2     
  23 C23            2.2542    -9.5310     4.2133 C.2     
  24 N24            2.7326    -8.3515     3.9098 N.2     
  25 C25            0.1359   -10.9034     3.6321 C.3     
  26 C26            1.5917    -4.7165    -2.9022 C.3     
  27 C27           -0.7583   -10.8094     4.8701 C.3     
  28 C28           -0.0134     5.6937     0.0333 C.3     
  29 C29           -1.4601     6.1914     0.0491 C.3     
  30 C30           -1.4729     7.6983     0.0578 C.2     
  31 O31           -2.6409     8.3595     0.0721 O.3     
  32 O32           -0.4317     8.3113     0.0520 O.2     
  33 C33            2.9161   -10.5478     5.1071 C.3     
  34 H34           -0.9585     1.9038     0.0169 H       
  35 H35           -0.9265    -0.5556     0.0083 H       
  36 H36            3.3396    -0.5192    -0.0326 H       
  37 H37            3.3299     1.9403    -0.0181 H       
  38 H38           -0.8369     3.7367     0.0295 H       
  39 H39            0.2615    -2.5628     0.3381 H       
  40 H40            0.7159    -2.2584    -2.1140 H       
  41 H41            2.4578    -2.3917    -1.7728 H       
  42 H42            3.0613    -2.1115     1.0346 H       
  43 H43            2.0964    -4.6476    -0.8090 H       
  44 H44            0.3545    -4.5143    -1.1502 H       
  45 H45            4.0828    -3.8051     2.4769 H       
  46 H46            3.8536    -6.0740     3.4598 H       
  47 H47            0.3132    -4.3986     0.5363 H       
  48 H48           -0.0919    -8.3678     2.2479 H       
  49 H49           -0.4855   -10.9505     2.7378 H       
  50 H50            0.7505   -11.8014     3.6952 H       
  51 H51            0.8461    -4.2848    -3.5698 H       
  52 H52            2.5879    -4.4180    -3.2286 H       
  53 H53            1.5128    -5.8034    -2.9237 H       
  54 H54           -1.4021   -11.6876     4.9208 H       
  55 H55           -0.1370   -10.7623     5.7644 H       
  56 H56           -1.3730    -9.9115     4.8070 H       
  57 H57            0.5053     6.0563     0.9207 H       
  58 H58            0.4893     6.0665    -0.8591 H       
  59 H59           -1.9788     5.8288    -0.8383 H       
  60 H60           -1.9628     5.8186     0.9415 H       
  61 H61           -2.5985     9.3256     0.0772 H       
  62 H62            3.5588   -11.1938     4.5089 H       
  63 H63            3.5155   -10.0350     5.8593 H       
  64 H64            2.1528   -11.1503     5.5995 H       
@<TRIPOS>BOND
   1    1    2 ar
   2    1    6 ar
   3    1   34 1
   4    2    3 ar
   5    2   35 1
   6    3    4 ar
   7    3   10 1
   8    4    5 ar
   9    4   36 1
  10    5    6 ar
  11    5   37 1
  12    6    7 1
  13    7    8 am
  14    7    9 2
  15    8   28 1
  16    8   38 1
  17   10   11 1
  18   10   12 1
  19   10   39 1
  20   11   13 1
  21   11   40 1
  22   11   41 1
  23   12   14 1
  24   12   42 1
  25   13   26 1
  26   13   43 1
  27   13   44 1
  28   14   15 ar
  29   14   19 ar
  30   15   16 ar
  31   15   45 1
  32   16   17 ar
  33   16   46 1
  34   17   18 ar
  35   17   20 1
  36   18   19 ar
  37   19   47 1
  38   20   21 1
  39   20   24 1
  40   21   22 2
  41   21   48 1
  42   22   23 1
  43   22   25 1
  44   23   24 2
  45   23   33 1
  46   25   27 1
  47   25   49 1
  48   25   50 1
  49   26   51 1
  50   26   52 1
  51   26   53 1
  52   27   54 1
  53   27   55 1
  54   27   56 1
  55   28   29 1
  56   28   57 1
  57   28   58 1
  58   29   30 1
  59   29   59 1
  60   29   60 1
  61   30   31 1
  62   30   32 2
  63   31   61 1
  64   33   62 1
  65   33   63 1
  66   33   64 1

#	End of record

