#	Name: ASD01900622
#	Creating user name:	WinNT
#	Creation time:	15. 06. 2019 19:52

#	Modifying user name:	WinNT
#	Modification time:	15. 06. 2019 19:52

#	Program:	/corina/corina34_cracker 3.40 0067  02.08.2006

@<TRIPOS>MOLECULE
ASD01900622
  37   40    0    0    0
SMALL
NO_CHARGES


@<TRIPOS>ATOM
   1 C1            -0.0167     1.3818     0.0096 C.ar    
   2 C2             0.0021    -0.0041     0.0020 C.ar    
   3 C3            -1.1763    -0.7249     0.0115 C.ar    
   4 C4            -2.3956    -0.0613     0.0295 C.ar    
   5 C5            -2.4092     1.3404     0.0332 C.ar    
   6 C6            -1.2203     2.0581     0.0305 C.ar    
   7 O7            -3.5545    -0.7536     0.0507 O.3     
   8 C8            -4.7327    -0.1693    -0.2271 C.2     
   9 C9            -4.8986     1.1742    -0.2448 C.2     
  10 C10           -3.7270     2.0249     0.0388 C.2     
  11 N11           -3.8423     3.3081     0.2801 N.2     
  12 C12           -5.8952    -1.0292    -0.5260 C.ar    
  13 N13           -7.0731    -0.4631    -0.8040 N.ar    
  14 C14           -8.1459    -1.1624    -1.0782 C.ar    
  15 C15           -8.0920    -2.5673    -1.0894 C.ar    
  16 C16           -6.8582    -3.2084    -0.7991 C.ar    
  17 C17           -5.7402    -2.4066    -0.5179 C.ar    
  18 C18           -9.2204    -3.3494    -1.3781 C.ar    
  19 C19           -9.1156    -4.7077    -1.3756 C.ar    
  20 C20           -7.9048    -5.3360    -1.0908 C.ar    
  21 C21           -6.7878    -4.6099    -0.8058 C.ar    
  22 O22           -5.1203     3.9177     0.2735 O.3     
  23 Br23           1.6577    -0.9174    -0.0223 Br      
  24 C24            1.2787     2.1517     0.0014 C.3     
  25 H25           -1.1491    -1.8046     0.0046 H       
  26 H26           -1.2371     3.1379     0.0371 H       
  27 H27           -5.8625     1.6114    -0.4600 H       
  28 H28           -9.0756    -0.6580    -1.2963 H       
  29 H29           -4.7832    -2.8532    -0.2920 H       
  30 H30          -10.1661    -2.8777    -1.6005 H       
  31 H31           -9.9857    -5.3078    -1.5978 H       
  32 H32           -7.8510    -6.4146    -1.0960 H       
  33 H33           -5.8555    -5.1091    -0.5867 H       
  34 H34           -5.1047     4.8661     0.4618 H       
  35 H35            1.5813     2.3428    -1.0282 H       
  36 H36            1.1413     3.0996     0.5217 H       
  37 H37            2.0506     1.5695     0.5048 H       
@<TRIPOS>BOND
   1    1    2 ar
   2    1   24 1
   3    1    6 ar
   4    2    3 ar
   5    2   23 1
   6    3    4 ar
   7    3   25 1
   8    4    5 ar
   9    4    7 1
  10    5    6 ar
  11    5   10 1
  12    6   26 1
  13    7    8 1
  14    8    9 2
  15    8   12 1
  16    9   10 1
  17    9   27 1
  18   10   11 2
  19   11   22 1
  20   12   13 ar
  21   12   17 ar
  22   13   14 ar
  23   14   15 ar
  24   14   28 1
  25   15   16 ar
  26   15   18 ar
  27   16   17 ar
  28   16   21 ar
  29   17   29 1
  30   18   19 ar
  31   18   30 1
  32   19   20 ar
  33   19   31 1
  34   20   21 ar
  35   20   32 1
  36   21   33 1
  37   22   34 1
  38   24   35 1
  39   24   36 1
  40   24   37 1

#	End of record

