#	Name: ASD01410212
#	Creating user name:	WinNT
#	Creation time:	15. 06. 2019 19:17

#	Modifying user name:	WinNT
#	Modification time:	15. 06. 2019 19:17

#	Program:	/corina/corina34_cracker 3.40 0067  02.08.2006

@<TRIPOS>MOLECULE
ASD01410212
  47   50    0    0    0
SMALL
NO_CHARGES


@<TRIPOS>ATOM
   1 C1            -0.0163     1.3475     0.0095 C.2     
   2 C2             0.0021    -0.0041     0.0020 C.2     
   3 C3            -1.3321    -0.4376     0.0133 C.2     
   4 C4            -2.1146     0.7003     0.0274 C.2     
   5 O5            -1.2891     1.7679     0.0297 O.3     
   6 C6            -4.1759     1.9388     0.0546 C.2     
   7 S7            -3.4708     3.5687     0.0561 S.3     
   8 C8            -5.0402     4.3930     0.0687 C.2     
   9 N9            -5.9628     3.4599     0.0710 N.2     
  10 C10           -5.6233     2.1888     0.0644 C.2     
  11 C11           -3.5274     0.7396     0.0415 C.2     
  12 O12           -6.4473     1.2871     0.0659 O.2     
  13 N13           -5.2500     5.7478     0.0749 N.pl3   
  14 C14           -6.6159     6.2774     0.0851 C.3     
  15 C15           -5.5810     8.5405     0.3848 C.ar    
  16 C16           -5.5503     9.7939     0.9140 C.ar    
  17 C17           -6.5752    10.2073     1.7824 C.ar    
  18 C18           -7.6266     9.3094     2.0932 C.ar    
  19 C19           -7.6241     8.0229     1.5273 C.ar    
  20 C20           -6.6150     7.6574     0.6905 C.ar    
  21 C21            1.1990     2.2387     0.0026 C.3     
  22 C22            1.5965     2.5480    -1.4421 C.3     
  23 C23           -6.5776    11.4935     2.3488 C.ar    
  24 C24           -7.5865    11.8587     3.1859 C.ar    
  25 C25           -8.6203    10.9755     3.4919 C.ar    
  26 C26           -8.6515     9.7226     2.9615 C.ar    
  27 C27           -7.1377     6.3486    -1.3269 C.2     
  28 O28           -6.4402     5.9934    -2.2473 O.2     
  29 O29           -8.3773     6.8066    -1.5620 O.3     
  30 H30            0.8800    -0.6329    -0.0108 H       
  31 H31           -1.6791    -1.4603     0.0108 H       
  32 H32           -4.0933    -0.1803     0.0420 H       
  33 H33           -4.4941     6.3556     0.0724 H       
  34 H34           -7.2554     5.6218     0.6762 H       
  35 H35           -4.7946     8.2269    -0.2858 H       
  36 H36           -4.7425    10.4673     0.6683 H       
  37 H37           -8.4187     7.3280     1.7555 H       
  38 H38            0.9707     3.1685     0.5237 H       
  39 H39            2.0231     1.7331     0.5059 H       
  40 H40            2.4755     3.1926    -1.4470 H       
  41 H41            1.8248     1.6182    -1.9631 H       
  42 H42            0.7724     3.0536    -1.9454 H       
  43 H43           -5.7826    12.1883     2.1213 H       
  44 H44           -7.5859    12.8477     3.6198 H       
  45 H45           -9.4087    11.2903     4.1597 H       
  46 H46           -9.4592     9.0490     3.2073 H       
  47 H47           -8.6678     6.8337    -2.4839 H       
@<TRIPOS>BOND
   1    1    2 2
   2    1   21 1
   3    1    5 1
   4    2    3 1
   5    2   30 1
   6    3    4 2
   7    3   31 1
   8    4    5 1
   9    4   11 1
  10    6    7 1
  11    6   10 1
  12    6   11 2
  13    7    8 1
  14    8    9 2
  15    8   13 1
  16    9   10 1
  17   10   12 2
  18   11   32 1
  19   13   14 1
  20   13   33 1
  21   14   20 1
  22   14   27 1
  23   14   34 1
  24   15   16 ar
  25   15   20 ar
  26   15   35 1
  27   16   17 ar
  28   16   36 1
  29   17   18 ar
  30   17   23 ar
  31   18   19 ar
  32   18   26 ar
  33   19   20 ar
  34   19   37 1
  35   21   22 1
  36   21   38 1
  37   21   39 1
  38   22   40 1
  39   22   41 1
  40   22   42 1
  41   23   24 ar
  42   23   43 1
  43   24   25 ar
  44   24   44 1
  45   25   26 ar
  46   25   45 1
  47   26   46 1
  48   27   28 2
  49   27   29 1
  50   29   47 1

#	End of record

