#	Name: ASD06020059
#	Creating user name:	WinNT
#	Creation time:	15. 06. 2019 21:04

#	Modifying user name:	WinNT
#	Modification time:	15. 06. 2019 21:04

#	Program:	/corina/corina34_cracker 3.40 0067  02.08.2006

@<TRIPOS>MOLECULE
ASD06020059
  38   41    0    0    0
SMALL
NO_CHARGES


@<TRIPOS>ATOM
   1 C1            -0.0167     1.3962     0.0027 C.ar    
   2 C2             0.0030    -0.0035     0.0026 C.ar    
   3 C3             1.2269    -0.6795    -0.0197 C.ar    
   4 C4             2.4126     0.1242    -0.0417 C.ar    
   5 C5             2.2912     1.5063    -0.0397 C.ar    
   6 N6             1.1093     2.0916    -0.0181 N.ar    
   7 S7            -1.2891    -1.1992     0.0261 S.3     
   8 C8            -0.1005    -2.4960     0.0043 C.2     
   9 N9             1.0970    -2.0020    -0.0175 N.2     
  10 C10            3.7057    -0.4906    -0.0649 C.1     
  11 N11            4.7315    -0.9784    -0.0832 N.1     
  12 N12           -1.2333     2.0638     0.0191 N.pl3   
  13 C13           -0.1697     5.4463     0.4364 C.ar    
  14 N14           -0.1437     4.1332     0.3296 N.ar    
  15 C15           -1.2646     3.4461     0.1315 C.ar    
  16 C16           -2.4737     4.1382     0.0378 C.ar    
  17 C17           -2.4522     5.5141     0.1558 C.ar    
  18 N18           -1.2940     6.1282     0.3525 N.ar    
  19 C19           -3.7299     6.3077     0.0616 C.3     
  20 C20           -0.4209    -3.9369     0.0109 C.ar    
  21 C21            0.6131    -4.8937    -0.0081 C.ar    
  22 C22            0.2949    -6.2509    -0.0010 C.ar    
  23 C23           -1.0264    -6.6511     0.0245 C.ar    
  24 C24           -2.0437    -5.7132     0.0428 C.ar    
  25 C25           -1.7503    -4.3612     0.0420 C.ar    
  26 F26           -2.7497    -3.4524     0.0660 F       
  27 C27            1.9821    -4.4746    -0.0350 C.1     
  28 N28            3.0682    -4.1422    -0.0564 N.1     
  29 H29            3.1828     2.1155    -0.0559 H       
  30 H30           -2.0618     1.5637    -0.0480 H       
  31 H31            0.7557     5.9780     0.6016 H       
  32 H32           -3.4023     3.6109    -0.1232 H       
  33 H33           -4.1658     6.4138     1.0550 H       
  34 H34           -3.5152     7.2945    -0.3484 H       
  35 H35           -4.4328     5.7886    -0.5900 H       
  36 H36            1.0824    -6.9899    -0.0159 H       
  37 H37           -1.2676    -7.7038     0.0299 H       
  38 H38           -3.0733    -6.0388     0.0623 H       
@<TRIPOS>BOND
   1    1    2 ar
   2    1    6 ar
   3    1   12 1
   4    2    3 ar
   5    2    7 1
   6    3    4 ar
   7    3    9 1
   8    4    5 ar
   9    4   10 1
  10    5    6 ar
  11    5   29 1
  12    7    8 1
  13    8    9 2
  14    8   20 1
  15   10   11 3
  16   12   15 1
  17   12   30 1
  18   13   14 ar
  19   13   18 ar
  20   13   31 1
  21   14   15 ar
  22   15   16 ar
  23   16   17 ar
  24   16   32 1
  25   17   18 ar
  26   17   19 1
  27   19   33 1
  28   19   34 1
  29   19   35 1
  30   20   21 ar
  31   20   25 ar
  32   21   22 ar
  33   21   27 1
  34   22   23 ar
  35   22   36 1
  36   23   24 ar
  37   23   37 1
  38   24   25 ar
  39   24   38 1
  40   25   26 1
  41   27   28 3

#	End of record

