#	Name: ASD01001251
#	Creating user name:	WinNT
#	Creation time:	15. 06. 2019 18:55

#	Modifying user name:	WinNT
#	Modification time:	15. 06. 2019 18:55

#	Program:	/corina/corina34_cracker 3.40 0067  02.08.2006

@<TRIPOS>MOLECULE
ASD01001251
  51   53    0    0    0
SMALL
NO_CHARGES


@<TRIPOS>ATOM
   1 C1             0.3114     1.3960    -0.3489 C.3     
   2 C2             0.0530    -0.0361     0.1235 C.3     
   3 C3             0.9401    -0.3440     1.3022 C.ar    
   4 C4            -1.3910    -0.1778     0.5310 C.ar    
   5 C5             0.7227     0.2849     2.5139 C.ar    
   6 C6             1.5364     0.0025     3.5950 C.ar    
   7 C7             2.5673    -0.9091     3.4647 C.ar    
   8 C8             2.7842    -1.5388     2.2533 C.ar    
   9 C9             1.9677    -1.2596     1.1733 C.ar    
  10 C10           -2.3605     0.5935    -0.0824 C.ar    
  11 C11           -3.6863     0.4661     0.2896 C.ar    
  12 C12           -4.0450    -0.4324     1.2754 C.ar    
  13 C13           -3.0738    -1.2080     1.8923 C.ar    
  14 C14           -1.7454    -1.0824     1.5134 C.ar    
  15 S15            0.4168    -1.1929    -1.2256 S.3     
  16 C16           -0.0959    -2.7926    -0.5409 C.3     
  17 C17            0.0848    -3.8821    -1.5998 C.3     
  18 C18           -0.3411    -5.2110    -1.0310 C.2     
  19 N19           -0.7391    -3.5652    -2.7739 N.3     
  20 O20            0.4911    -5.8967    -0.2317 O.3     
  21 O21           -1.4318    -5.6593    -1.2945 O.2     
  22 C22            1.7833     1.5791    -0.6153 C.ar    
  23 C23            2.3049     1.2686    -1.8572 C.ar    
  24 C24            3.6551     1.4366    -2.1015 C.ar    
  25 C25            4.4836     1.9155    -1.1039 C.ar    
  26 C26            3.9619     2.2269     0.1377 C.ar    
  27 C27            2.6109     2.0630     0.3807 C.ar    
  28 O28           -3.4242    -2.0924     2.8628 O.3     
  29 H29           -0.2495     1.5833    -1.2645 H       
  30 H30           -0.0081     2.0964     0.4227 H       
  31 H31           -0.0828     0.9972     2.6157 H       
  32 H32            1.3670     0.4944     4.5415 H       
  33 H33            3.2035    -1.1292     4.3092 H       
  34 H34            3.5898    -2.2508     2.1514 H       
  35 H35            2.1371    -1.7515     0.2269 H       
  36 H36           -2.0820     1.2969    -0.8531 H       
  37 H37           -4.4419     1.0701    -0.1908 H       
  38 H38           -5.0805    -0.5309     1.5661 H       
  39 H39           -0.9876    -1.6850     1.9920 H       
  40 H40            0.5155    -3.0277     0.3303 H       
  41 H41           -1.1442    -2.7425    -0.2463 H       
  42 H42            1.1331    -3.9321    -1.8943 H       
  43 H43           -1.7160    -3.5132    -2.5268 H       
  44 H44           -0.4309    -2.7101    -3.2119 H       
  45 H45            0.1737    -6.7442     0.1090 H       
  46 H46            1.6576     0.8945    -2.6366 H       
  47 H47            4.0627     1.1934    -3.0716 H       
  48 H48            5.5386     2.0461    -1.2946 H       
  49 H49            4.6093     2.6007     0.9172 H       
  50 H50            2.2033     2.3063     1.3507 H       
  51 H51           -3.6376    -2.9755     2.5317 H       
@<TRIPOS>BOND
   1    1    2 1
   2    1   22 1
   3    1   29 1
   4    1   30 1
   5    2    3 1
   6    2    4 1
   7    2   15 1
   8    3    5 ar
   9    3    9 ar
  10    4   10 ar
  11    4   14 ar
  12    5    6 ar
  13    5   31 1
  14    6    7 ar
  15    6   32 1
  16    7    8 ar
  17    7   33 1
  18    8    9 ar
  19    8   34 1
  20    9   35 1
  21   10   11 ar
  22   10   36 1
  23   11   12 ar
  24   11   37 1
  25   12   13 ar
  26   12   38 1
  27   13   14 ar
  28   13   28 1
  29   14   39 1
  30   15   16 1
  31   16   17 1
  32   16   40 1
  33   16   41 1
  34   17   18 1
  35   17   19 1
  36   17   42 1
  37   18   20 1
  38   18   21 2
  39   19   43 1
  40   19   44 1
  41   20   45 1
  42   22   23 ar
  43   22   27 ar
  44   23   24 ar
  45   23   46 1
  46   24   25 ar
  47   24   47 1
  48   25   26 ar
  49   25   48 1
  50   26   27 ar
  51   26   49 1
  52   27   50 1
  53   28   51 1

#	End of record

