#	Name: ASD03090398
#	Creating user name:	WinNT
#	Creation time:	15. 06. 2019 20:28

#	Modifying user name:	WinNT
#	Modification time:	15. 06. 2019 20:28

#	Program:	/corina/corina34_cracker 3.40 0067  02.08.2006

@<TRIPOS>MOLECULE
ASD03090398
  37   39    0    0    0
SMALL
NO_CHARGES


@<TRIPOS>ATOM
   1 C1            -0.0179     1.4718     0.0101 C.2     
   2 C2             0.0021    -0.0041     0.0020 C.ar    
   3 C3             1.2205    -0.6880    -0.0133 C.ar    
   4 C4             1.2349    -2.0650    -0.0209 C.ar    
   5 C5             0.0396    -2.7744    -0.0138 C.ar    
   6 C6            -1.1744    -2.0978     0.0010 C.ar    
   7 C7            -1.1973    -0.7210     0.0154 C.ar    
   8 O8             1.0266     2.0940     0.0035 O.2     
   9 N9            -1.1942     2.1298     0.0193 N.am    
  10 O10            0.0580    -4.1314    -0.0217 O.3     
  11 C11           -1.2062    -4.7974    -0.0137 C.3     
  12 F12           -1.9368    -4.4247    -1.1471 F       
  13 F13           -1.0042    -6.1817    -0.0236 F       
  14 F14           -1.9155    -4.4378     1.1373 F       
  15 C15           -1.2140     3.5946     0.0273 C.3     
  16 N16           -6.5411     5.3986     0.3357 N.pl3   
  17 C17           -6.6944     5.4451     1.6946 C.2     
  18 C18           -5.5590     5.0573     2.2967 C.2     
  19 C19           -4.6003     4.7362     1.2367 C.ar    
  20 C20           -3.2778     4.2883     1.2273 C.ar    
  21 C21           -2.6415     4.0776     0.0367 C.ar    
  22 C22           -3.2993     4.3052    -1.1644 C.ar    
  23 C23           -4.6038     4.7476    -1.1782 C.ar    
  24 C24           -5.2711     4.9688     0.0224 C.ar    
  25 H25            2.1496    -0.1375    -0.0195 H       
  26 H26            2.1762    -2.5943    -0.0327 H       
  27 H27           -2.1010    -2.6526     0.0061 H       
  28 H28           -2.1409    -0.1960     0.0317 H       
  29 H29           -2.0275     1.6334     0.0205 H       
  30 H30           -0.7010     3.9600     0.9169 H       
  31 H31           -0.7094     3.9697    -0.8630 H       
  32 H32           -7.2264     5.6300    -0.3107 H       
  33 H33           -7.5952     5.7492     2.2068 H       
  34 H34           -5.3854     4.9941     3.3608 H       
  35 H35           -2.7594     4.1099     2.1578 H       
  36 H36           -2.7830     4.1341    -2.0975 H       
  37 H37           -5.1068     4.9222    -2.1178 H       
@<TRIPOS>BOND
   1    1    2 1
   2    1    8 2
   3    1    9 am
   4    2    3 ar
   5    2    7 ar
   6    3    4 ar
   7    3   25 1
   8    4    5 ar
   9    4   26 1
  10    5    6 ar
  11    5   10 1
  12    6    7 ar
  13    6   27 1
  14    7   28 1
  15    9   15 1
  16    9   29 1
  17   10   11 1
  18   11   12 1
  19   11   13 1
  20   11   14 1
  21   15   21 1
  22   15   30 1
  23   15   31 1
  24   16   17 1
  25   16   24 1
  26   16   32 1
  27   17   18 2
  28   17   33 1
  29   18   19 1
  30   18   34 1
  31   19   20 ar
  32   19   24 ar
  33   20   21 ar
  34   20   35 1
  35   21   22 ar
  36   22   23 ar
  37   22   36 1
  38   23   24 ar
  39   23   37 1

#	End of record

