#	Name: ASD01208953
#	Creating user name:	WinNT
#	Creation time:	15. 06. 2019 19:10

#	Modifying user name:	WinNT
#	Modification time:	15. 06. 2019 19:10

#	Program:	/corina/corina34_cracker 3.40 0067  02.08.2006

@<TRIPOS>MOLECULE
ASD01208953
  58   62    0    0    0
SMALL
NO_CHARGES


@<TRIPOS>ATOM
   1 C1            -2.3135     1.6146    -0.8382 C.3     
   2 C2            -2.2200     0.0993    -1.0420 C.3     
   3 C3            -1.4490    -0.1843    -2.3348 C.3     
   4 C4            -2.1494     0.5167    -3.5017 C.3     
   5 C5            -2.9806     2.2461    -2.0630 C.3     
   6 C6            -1.4842    -0.5318     0.1417 C.3     
   7 C7            -1.5304    -2.0560     0.0170 C.3     
   8 C8            -0.7065    -2.6752     1.1166 C.2     
   9 N9             0.6325    -2.5222     1.1230 N.am    
  10 C10            1.4025    -3.1748     2.0802 C.2     
  11 N11           -2.9176    -2.5133     0.1296 N.pl3   
  12 C12           -3.6171    -3.2095    -0.8246 C.ar    
  13 C13           -4.9029    -3.4377    -0.2940 C.ar    
  14 C14           -4.9246    -2.8528     0.9939 C.2     
  15 N15           -3.7598    -2.3220     1.2316 N.2     
  16 O16           -1.2485    -3.3112     1.9957 O.2     
  17 O17           -2.2306     1.9181    -3.2343 O.3     
  18 C18           -3.3020    -3.6774    -2.0934 C.ar    
  19 C19           -4.2604    -4.3678    -2.8292 C.ar    
  20 C20           -5.5380    -4.5905    -2.2933 C.ar    
  21 C21           -5.8553    -4.1361    -1.0509 C.ar    
  22 C22           -7.1832    -5.5138     1.0297 C.3     
  23 C23           -8.4144    -6.0513     1.7619 C.3     
  24 C24           -7.5798    -6.9841     0.8820 C.3     
  25 C25           -3.9320    -4.8671    -4.1784 C.2     
  26 S26            3.1557    -3.0771     2.2207 S.3     
  27 C27            3.1013    -4.1617     3.6088 C.2     
  28 C28            1.8268    -4.4876     3.8347 C.2     
  29 N29            0.9433    -3.9484     3.0155 N.2     
  30 F30            4.1664    -4.5900     4.3212 F       
  31 O31           -4.7669    -5.4702    -4.8229 O.2     
  32 O32           -2.7062    -4.6543    -4.6957 O.3     
  33 S33           -7.4643    -4.4236    -0.3927 S.o2    
  34 O34           -7.9001    -3.1421     0.0397 O.2     
  35 O35           -8.1469    -5.1191    -1.4269 O.2     
  36 H36           -2.9082     1.8267     0.0503 H       
  37 H37           -1.3126     2.0280    -0.7149 H       
  38 H38           -3.2229    -0.3213    -1.1158 H       
  39 H39           -0.4305     0.1928    -2.2417 H       
  40 H40           -1.4253    -1.2588    -2.5165 H       
  41 H41           -1.5812     0.3537    -4.4176 H       
  42 H42           -3.1539     0.1103    -3.6198 H       
  43 H43           -3.9960     1.8624    -2.1622 H       
  44 H44           -3.0112     3.3290    -1.9424 H       
  45 H45           -0.4463    -0.1987     0.1438 H       
  46 H46           -1.9649    -0.2286     1.0718 H       
  47 H47           -1.1270    -2.3537    -0.9508 H       
  48 H48            1.0593    -1.9570     0.4603 H       
  49 H49           -5.7669    -2.8505     1.6698 H       
  50 H50           -2.3192    -3.5062    -2.5070 H       
  51 H51           -6.2754    -5.1274    -2.8717 H       
  52 H52           -6.3006    -5.2879     1.6280 H       
  53 H53           -8.3416    -6.1794     2.8419 H       
  54 H54           -9.3933    -5.7499     1.3889 H       
  55 H55           -8.0095    -7.2964    -0.0698 H       
  56 H56           -6.9579    -7.7259     1.3831 H       
  57 H57            1.5365    -5.1472     4.6391 H       
  58 H58           -2.5380    -5.0002    -5.5829 H       
@<TRIPOS>BOND
   1    1    2 1
   2    1    5 1
   3    1   36 1
   4    1   37 1
   5    2    3 1
   6    2    6 1
   7    2   38 1
   8    3    4 1
   9    3   39 1
  10    3   40 1
  11    4   17 1
  12    4   41 1
  13    4   42 1
  14    5   17 1
  15    5   43 1
  16    5   44 1
  17    6    7 1
  18    6   45 1
  19    6   46 1
  20    7    8 1
  21    7   11 1
  22    7   47 1
  23    8    9 am
  24    8   16 2
  25    9   10 1
  26    9   48 1
  27   10   26 1
  28   10   29 2
  29   11   12 1
  30   11   15 1
  31   12   13 ar
  32   12   18 ar
  33   13   14 1
  34   13   21 ar
  35   14   15 2
  36   14   49 1
  37   18   19 ar
  38   18   50 1
  39   19   20 ar
  40   19   25 1
  41   20   21 ar
  42   20   51 1
  43   21   33 1
  44   22   23 1
  45   22   33 1
  46   22   24 1
  47   22   52 1
  48   23   24 1
  49   23   53 1
  50   23   54 1
  51   24   55 1
  52   24   56 1
  53   25   31 2
  54   25   32 1
  55   26   27 1
  56   27   28 2
  57   27   30 1
  58   28   29 1
  59   28   57 1
  60   32   58 1
  61   33   34 2
  62   33   35 2

#	End of record

