#	Name: ASD02038575
#	Creating user name:	WinNT
#	Creation time:	15. 06. 2019 20:17

#	Modifying user name:	WinNT
#	Modification time:	15. 06. 2019 20:17

#	Program:	/corina/corina34_cracker 3.40 0067  02.08.2006

@<TRIPOS>MOLECULE
ASD02038575
  56   58    0    0    0
SMALL
NO_CHARGES


@<TRIPOS>ATOM
   1 C1            -0.5561     1.4616    -0.2907 C.3     
   2 N2            -0.3223     0.0141    -0.1921 N.3     
   3 C3             0.3907    -0.4858    -1.3752 C.3     
   4 C4            -1.5867    -0.7084     0.0050 C.3     
   5 C5            -2.2588    -0.2143     1.2883 C.3     
   6 N6            -2.4925     1.2332     1.1897 N.3     
   7 C7            -3.1708     1.7088     2.3151 C.ar    
   8 C8            -4.3909     1.1532     2.6784 C.ar    
   9 C9            -5.0591     1.6252     3.7911 C.ar    
  10 C10           -4.5142     2.6506     4.5438 C.ar    
  11 C11           -3.2990     3.2062     4.1839 C.ar    
  12 C12           -2.6235     2.7340     3.0757 C.ar    
  13 C13           -1.2281     1.9557     0.9925 C.3     
  14 C14            0.3966    -2.0157    -1.3584 C.3     
  15 C15            1.1393    -2.5364    -2.5906 C.3     
  16 O16            1.0449    -3.9615    -2.6367 O.3     
  17 C17            1.6562    -4.5873    -3.6778 C.ar    
  18 C18            1.6036    -5.9694    -3.7834 C.ar    
  19 C19            2.2238    -6.6055    -4.8406 C.ar    
  20 C20            2.9000    -5.8614    -5.7980 C.ar    
  21 C21            2.9523    -4.4781    -5.6917 C.ar    
  22 C22            2.3272    -3.8428    -4.6368 C.ar    
  23 N23            3.5301    -6.5063    -6.8709 N.am    
  24 O24            1.0538    -2.4765    -0.1762 O.3     
  25 Cl25          -5.3568     3.2414     5.9419 Cl      
  26 C26            0.7802     2.1829    -0.4774 C.3     
  27 C27            2.9749    -7.6071    -7.4154 C.2     
  28 N28            3.5297    -8.1727    -8.5057 N.am    
  29 O29            1.9734    -8.0900    -6.9231 O.2     
  30 H30           -1.2031     1.6683    -1.1433 H       
  31 H31           -0.1106    -0.1343    -2.2770 H       
  32 H32            1.4168    -0.1183    -1.3632 H       
  33 H33           -2.2458    -0.5264    -0.8439 H       
  34 H34           -1.3861    -1.7766     0.0877 H       
  35 H35           -3.2108    -0.7282     1.4213 H       
  36 H36           -1.6115    -0.4209     2.1406 H       
  37 H37           -4.8169     0.3532     2.0911 H       
  38 H38           -6.0080     1.1939     4.0739 H       
  39 H39           -2.8763     4.0069     4.7727 H       
  40 H40           -1.6749     3.1677     2.7955 H       
  41 H41           -0.5691     1.7738     1.8414 H       
  42 H42           -1.4288     3.0239     0.9098 H       
  43 H43           -0.6295    -2.3832    -1.3704 H       
  44 H44            0.6920    -2.1133    -3.4901 H       
  45 H45            2.1876    -2.2433    -2.5338 H       
  46 H46            1.0778    -6.5482    -3.0384 H       
  47 H47            2.1831    -7.6816    -4.9226 H       
  48 H48            3.4785    -3.8987    -6.4359 H       
  49 H49            2.3678    -2.7668    -4.5540 H       
  50 H50            4.3657    -6.1605    -7.2217 H       
  51 H51            1.9731    -2.1868    -0.0988 H       
  52 H52            1.2595     1.8294    -1.3904 H       
  53 H53            0.6065     3.2565    -0.5505 H       
  54 H54            1.4267     1.9767     0.3756 H       
  55 H55            4.3286    -7.7876    -8.8985 H       
  56 H56            3.1301    -8.9650    -8.8976 H       
@<TRIPOS>BOND
   1    1    2 1
   2    1   26 1
   3    1   13 1
   4    1   30 1
   5    2    3 1
   6    2    4 1
   7    3   14 1
   8    3   31 1
   9    3   32 1
  10    4    5 1
  11    4   33 1
  12    4   34 1
  13    5    6 1
  14    5   35 1
  15    5   36 1
  16    6    7 1
  17    6   13 1
  18    7    8 ar
  19    7   12 ar
  20    8    9 ar
  21    8   37 1
  22    9   10 ar
  23    9   38 1
  24   10   11 ar
  25   10   25 1
  26   11   12 ar
  27   11   39 1
  28   12   40 1
  29   13   41 1
  30   13   42 1
  31   14   15 1
  32   14   24 1
  33   14   43 1
  34   15   16 1
  35   15   44 1
  36   15   45 1
  37   16   17 1
  38   17   18 ar
  39   17   22 ar
  40   18   19 ar
  41   18   46 1
  42   19   20 ar
  43   19   47 1
  44   20   21 ar
  45   20   23 1
  46   21   22 ar
  47   21   48 1
  48   22   49 1
  49   23   27 am
  50   23   50 1
  51   24   51 1
  52   26   52 1
  53   26   53 1
  54   26   54 1
  55   27   28 am
  56   27   29 2
  57   28   55 1
  58   28   56 1

#	End of record

