#	Name: ASD03430370
#	Creating user name:	WinNT
#	Creation time:	15. 06. 2019 20:40

#	Modifying user name:	WinNT
#	Modification time:	15. 06. 2019 20:40

#	Program:	/corina/corina34_cracker 3.40 0067  02.08.2006

@<TRIPOS>MOLECULE
ASD03430370
  33   36    0    0    0
SMALL
NO_CHARGES


@<TRIPOS>ATOM
   1 N1            -0.0161     1.3395     0.0094 N.am    
   2 C2             0.0021    -0.0041     0.0020 C.2     
   3 C3             1.4548    -0.4298    -0.0141 C.3     
   4 C4             2.2197     0.8737    -0.0144 C.ar    
   5 C5             3.5641     1.1705    -0.0263 C.ar    
   6 C6             3.9795     2.4906    -0.0239 C.ar    
   7 C7             3.0415     3.5068    -0.0095 C.ar    
   8 C8             1.6940     3.2122     0.0024 C.ar    
   9 C9             1.2680     1.8853     0.0001 C.ar    
  10 O10           -0.9637    -0.7377     0.0076 O.2     
  11 S11            1.7907    -1.0312     5.3197 S.3     
  12 C12            2.3810    -2.5762     5.7396 C.2     
  13 N13            2.6260    -3.2832     4.7017 N.2     
  14 C14            2.3933    -2.7312     3.4955 C.ar    
  15 C15            1.9038    -1.4251     3.6068 C.ar    
  16 C16            2.5728    -3.2767     2.2083 C.ar    
  17 C17            2.2692    -2.5325     1.0909 C.ar    
  18 C18            1.7830    -1.2343     1.2172 C.ar    
  19 C19            1.6019    -0.6853     2.4660 C.ar    
  20 C20            2.5880    -3.0487     7.1555 C.3     
  21 O21            2.4464    -3.0692    -0.1458 O.3     
  22 H22           -0.8287     1.8692     0.0162 H       
  23 H23            1.6751    -1.0021    -0.9153 H       
  24 H24            4.2935     0.3741    -0.0372 H       
  25 H25            5.0333     2.7266    -0.0329 H       
  26 H26            3.3659     4.5370    -0.0072 H       
  27 H27            0.9677     4.0114     0.0136 H       
  28 H28            2.9498    -4.2828     2.0984 H       
  29 H29            1.2242     0.3220     2.5618 H       
  30 H30            1.6764    -3.5247     7.5166 H       
  31 H31            3.4080    -3.7664     7.1829 H       
  32 H32            2.8295    -2.1968     7.7912 H       
  33 H33            1.6712    -3.5362    -0.4866 H       
@<TRIPOS>BOND
   1    1    2 am
   2    1    9 1
   3    1   22 1
   4    2    3 1
   5    2   10 2
   6    3    4 1
   7    3   18 1
   8    3   23 1
   9    4    5 ar
  10    4    9 ar
  11    5    6 ar
  12    5   24 1
  13    6    7 ar
  14    6   25 1
  15    7    8 ar
  16    7   26 1
  17    8    9 ar
  18    8   27 1
  19   11   12 1
  20   11   15 1
  21   12   13 2
  22   12   20 1
  23   13   14 1
  24   14   15 ar
  25   14   16 ar
  26   15   19 ar
  27   16   17 ar
  28   16   28 1
  29   17   18 ar
  30   17   21 1
  31   18   19 ar
  32   19   29 1
  33   20   30 1
  34   20   31 1
  35   20   32 1
  36   21   33 1

#	End of record

