#	Name: ASD03090790
#	Creating user name:	WinNT
#	Creation time:	15. 06. 2019 20:29

#	Modifying user name:	WinNT
#	Modification time:	15. 06. 2019 20:29

#	Program:	/corina/corina34_cracker 3.40 0067  02.08.2006

@<TRIPOS>MOLECULE
ASD03090790
  48   50    0    0    0
SMALL
NO_CHARGES


@<TRIPOS>ATOM
   1 N1            -0.1200     1.0707     0.3193 N.pl3   
   2 N2            -0.0106    -0.2914    -0.0047 N.2     
   3 C3             1.1106     1.4690     0.7117 C.2     
   4 N4             1.9174     0.4298     0.6350 N.2     
   5 C5             1.2404    -0.6345     0.2021 C.2     
   6 C6            -1.3270     1.8973     0.2413 C.3     
   7 C7            -2.0669     1.8469     1.5796 C.3     
   8 C8            -3.2580     2.8065     1.5402 C.3     
   9 O9            -2.5340     0.5173     1.8158 O.3     
  10 C10           -3.9236     2.8499     2.9171 C.3     
  11 N11            1.7750    -1.9085     0.0017 N.pl3   
  12 C12            3.1498    -2.1233     0.1577 C.ar    
  13 C13            3.6651    -3.4134     0.0912 C.ar    
  14 C14            4.0011    -1.0486     0.3732 C.ar    
  15 C15            5.3580    -1.2620     0.5266 C.ar    
  16 C16            5.8699    -2.5464     0.4652 C.ar    
  17 C17            5.0240    -3.6221     0.2453 C.ar    
  18 F18            2.8398    -4.4613    -0.1231 F       
  19 F19            7.1969    -2.7514     0.6146 F       
  20 C20            1.4858     2.8319     1.1501 C.ar    
  21 C21            2.8252     3.2347     1.1787 C.ar    
  22 C22            3.1302     4.5147     1.5939 C.ar    
  23 N23            2.1795     5.3525     1.9605 N.ar    
  24 C24            0.9048     5.0133     1.9484 C.ar    
  25 C25            0.5103     3.7551     1.5419 C.ar    
  26 C26            4.5690     4.9616     1.6295 C.3     
  27 C27           -0.1351     6.0154     2.3789 C.3     
  28 Cl28           5.6690    -5.2320     0.1687 Cl      
  29 H29           -1.0481     2.9273     0.0189 H       
  30 H30           -1.9766     1.5183    -0.5476 H       
  31 H31           -1.3892     2.1417     2.3808 H       
  32 H32           -2.9117     3.8047     1.2723 H       
  33 H33           -3.9786     2.4609     0.7990 H       
  34 H34           -3.1430     0.1885     1.1404 H       
  35 H35           -4.2699     1.8517     3.1850 H       
  36 H36           -3.2029     3.1955     3.6583 H       
  37 H37           -4.7721     3.5335     2.8891 H       
  38 H38            1.1940    -2.6449    -0.2456 H       
  39 H39            3.6034    -0.0457     0.4207 H       
  40 H40            6.0199    -0.4252     0.6943 H       
  41 H41            3.6088     2.5538     0.8806 H       
  42 H42           -0.5352     3.4843     1.5343 H       
  43 H43            4.8364     5.4025     0.6691 H       
  44 H44            4.7001     5.7022     2.4184 H       
  45 H45            5.2113     4.1032     1.8266 H       
  46 H46           -0.4654     6.5906     1.5140 H       
  47 H47           -0.9864     5.4916     2.8136 H       
  48 H48            0.2944     6.6889     3.1206 H       
@<TRIPOS>BOND
   1    1    2 1
   2    1    3 1
   3    1    6 1
   4    2    5 2
   5    3    4 2
   6    3   20 1
   7    4    5 1
   8    5   11 1
   9    6    7 1
  10    6   29 1
  11    6   30 1
  12    7    8 1
  13    7    9 1
  14    7   31 1
  15    8   10 1
  16    8   32 1
  17    8   33 1
  18    9   34 1
  19   10   35 1
  20   10   36 1
  21   10   37 1
  22   11   12 1
  23   11   38 1
  24   12   13 ar
  25   12   14 ar
  26   13   18 1
  27   13   17 ar
  28   14   15 ar
  29   14   39 1
  30   15   16 ar
  31   15   40 1
  32   16   17 ar
  33   16   19 1
  34   17   28 1
  35   20   21 ar
  36   20   25 ar
  37   21   22 ar
  38   21   41 1
  39   22   23 ar
  40   22   26 1
  41   23   24 ar
  42   24   25 ar
  43   24   27 1
  44   25   42 1
  45   26   43 1
  46   26   44 1
  47   26   45 1
  48   27   46 1
  49   27   47 1
  50   27   48 1

#	End of record

