#	Name: ASD03731813
#	Creating user name:	WinNT
#	Creation time:	15. 06. 2019 20:46

#	Modifying user name:	WinNT
#	Modification time:	15. 06. 2019 20:46

#	Program:	/corina/corina34_cracker 3.40 0067  02.08.2006

@<TRIPOS>MOLECULE
ASD03731813
  34   35    0    0    0
SMALL
NO_CHARGES


@<TRIPOS>ATOM
   1 C1             0.1238     1.4715    -0.0153 C.2     
   2 C2             0.1065    -0.0047    -0.0178 C.ar    
   3 C3             1.2948    -0.7153    -0.1774 C.ar    
   4 C4             1.2727    -2.1077    -0.1789 C.ar    
   5 C5             0.0530    -2.7855    -0.0197 C.ar    
   6 C6            -1.1249    -2.0672     0.1385 C.ar    
   7 C7            -1.1020    -0.6903     0.1457 C.ar    
   8 O8             1.1747     2.0674    -0.1525 O.2     
   9 N9            -1.0260     2.1587     0.1334 N.am    
  10 S10           -1.0066     3.8146     0.1361 S.o2    
  11 O11           -2.3649     4.1807     0.3364 O.2     
  12 O12           -0.0087     4.1518     1.0900 O.2     
  13 C13           -0.4662     4.2637    -1.5362 C.3     
  14 C14            2.4889    -2.8456    -0.3427 C.1     
  15 N15            3.4538    -3.4310    -0.4727 N.1     
  16 O16            0.0255    -4.1404    -0.0209 O.3     
  17 C17            0.2481    -4.7841     1.1552 C.ar    
  18 C18            0.1671    -6.1692     1.2164 C.ar    
  19 C19            0.3940    -6.8208     2.4139 C.ar    
  20 C20            0.7008    -6.0946     3.5501 C.ar    
  21 C21            0.7819    -4.7158     3.4913 C.ar    
  22 C22            0.5621    -4.0594     2.2953 C.ar    
  23 Cl23          -0.2192    -7.0810    -0.2095 Cl      
  24 H24            2.2293    -0.1879    -0.2997 H       
  25 H25           -2.0618    -2.5903     0.2608 H       
  26 H26           -2.0210    -0.1376     0.2736 H       
  27 H27           -1.8649     1.6833     0.2388 H       
  28 H28           -1.1723     3.8663    -2.2653 H       
  29 H29           -0.4244     5.3493    -1.6253 H       
  30 H30            0.5229     3.8455    -1.7231 H       
  31 H31            0.3312    -7.8979     2.4625 H       
  32 H32            0.8771    -6.6055     4.4851 H       
  33 H33            1.0214    -4.1512     4.3803 H       
  34 H34            0.6301    -2.9825     2.2494 H       
@<TRIPOS>BOND
   1    1    2 1
   2    1    8 2
   3    1    9 am
   4    2    3 ar
   5    2    7 ar
   6    3    4 ar
   7    3   24 1
   8    4    5 ar
   9    4   14 1
  10    5    6 ar
  11    5   16 1
  12    6    7 ar
  13    6   25 1
  14    7   26 1
  15    9   10 am
  16    9   27 1
  17   10   11 2
  18   10   12 2
  19   10   13 1
  20   13   28 1
  21   13   29 1
  22   13   30 1
  23   14   15 3
  24   16   17 1
  25   17   18 ar
  26   17   22 ar
  27   18   19 ar
  28   18   23 1
  29   19   20 ar
  30   19   31 1
  31   20   21 ar
  32   20   32 1
  33   21   22 ar
  34   21   33 1
  35   22   34 1

#	End of record

