#	Name: ASD09470001
#	Creating user name:	WinNT
#	Creation time:	15. 06. 2019 21:22

#	Modifying user name:	WinNT
#	Modification time:	15. 06. 2019 21:22

#	Program:	/corina/corina34_cracker 3.40 0067  02.08.2006

@<TRIPOS>MOLECULE
ASD09470001
  12   12    0    0    0
SMALL
NO_CHARGES


@<TRIPOS>ATOM
   1 N1            -0.0169     1.3966     0.0097 N.pl3   
   2 N2             0.0021    -0.0041     0.0020 N.2     
   3 C3             1.2503    -0.3959    -0.0120 C.2     
   4 C4             2.0651     0.7410    -0.0137 C.2     
   5 C5             1.2612     1.8294    -0.0002 C.2     
   6 C6             3.5720     0.7518    -0.0276 C.3     
   7 H7            -0.8090     1.9566     0.0167 H       
   8 H8             1.5925    -1.4202    -0.0205 H       
   9 H9             1.5846     2.8598     0.0023 H       
  10 H10            3.9258     0.7602    -1.0585 H       
  11 H11            3.9337     1.6415     0.4879 H       
  12 H12            3.9464    -0.1384     0.4779 H       
@<TRIPOS>BOND
   1    1    2 1
   2    1    5 1
   3    1    7 1
   4    2    3 2
   5    3    4 1
   6    3    8 1
   7    4    5 2
   8    4    6 1
   9    5    9 1
  10    6   10 1
  11    6   11 1
  12    6   12 1

#	End of record

