#	Name: ASD00960189
#	Creating user name:	WinNT
#	Creation time:	15. 06. 2019 18:53

#	Modifying user name:	WinNT
#	Modification time:	15. 06. 2019 18:53

#	Program:	/corina/corina34_cracker 3.40 0067  02.08.2006

@<TRIPOS>MOLECULE
ASD00960189
  46   49    0    0    0
SMALL
NO_CHARGES


@<TRIPOS>ATOM
   1 C1            -0.0179     1.3873     0.0348 C.2     
   2 C2             0.0006    -0.0032     0.0343 C.2     
   3 N3             1.2762     1.8316     0.0212 N.pl3   
   4 C4             2.1103     0.7392     0.0121 C.2     
   5 C5             1.3261    -0.4050     0.0202 C.2     
   6 N6             1.8473     3.1117     0.0151 N.2     
   7 C7             3.1545     3.2472     0.0009 C.2     
   8 N8             3.9758     2.1902    -0.0085 N.2     
   9 C9             3.5112     0.9556    -0.0031 C.2     
  10 N10            4.3818    -0.1166    -0.0126 N.pl3   
  11 C11            3.7363     4.6101    -0.0054 C.2     
  12 N12            2.9274     5.6881     0.0034 N.am    
  13 O13            4.9427     4.7557    -0.0185 O.2     
  14 C14            3.4733     6.9709     0.1102 C.ar    
  15 C15            2.8818     8.0367    -0.5557 C.ar    
  16 C16            4.6050     7.1833     0.8871 C.ar    
  17 C17            5.1417     8.4515     0.9904 C.ar    
  18 C18            4.5537     9.5094     0.3215 C.ar    
  19 C19            3.4236     9.3025    -0.4482 C.ar    
  20 C20           -1.2130     2.2287     0.0422 C.2     
  21 O21           -2.3170     1.7173     0.0491 O.2     
  22 O22           -1.0920     3.5727     0.0414 O.3     
  23 C23           -2.3019     4.3330     0.0488 C.3     
  24 C24           -1.9713     5.8033     0.0467 C.ar    
  25 C25           -1.8271     6.4775    -1.1514 C.ar    
  26 C26           -1.5237     7.8262    -1.1533 C.ar    
  27 C27           -1.3651     8.5007     0.0428 C.ar    
  28 C28           -1.5102     7.8266     1.2409 C.ar    
  29 C29           -1.8178     6.4789     1.2429 C.ar    
  30 H30           -0.8624    -0.6524     0.0433 H       
  31 H31            1.6841    -1.4240     0.0164 H       
  32 H32            5.3396     0.0365    -0.0234 H       
  33 H33            4.0354    -1.0226    -0.0086 H       
  34 H34            1.9665     5.5740    -0.0644 H       
  35 H35            1.9994     7.8757    -1.1573 H       
  36 H36            5.0645     6.3575     1.4100 H       
  37 H37            6.0214     8.6174     1.5946 H       
  38 H38            4.9752    10.5003     0.4043 H       
  39 H39            2.9670    10.1308    -0.9696 H       
  40 H40           -2.8885     4.0912    -0.8375 H       
  41 H41           -2.8774     4.0913     0.9424 H       
  42 H42           -1.9510     5.9506    -2.0859 H       
  43 H43           -1.4104     8.3528    -2.0894 H       
  44 H44           -1.1274     9.5542     0.0413 H       
  45 H45           -1.3859     8.3535     2.1755 H       
  46 H46           -1.9348     5.9531     2.1790 H       
@<TRIPOS>BOND
   1    1    2 2
   2    1    3 1
   3    1   20 1
   4    2    5 1
   5    2   30 1
   6    3    4 1
   7    3    6 1
   8    4    5 2
   9    4    9 1
  10    5   31 1
  11    6    7 2
  12    7    8 1
  13    7   11 1
  14    8    9 2
  15    9   10 1
  16   10   32 1
  17   10   33 1
  18   11   12 am
  19   11   13 2
  20   12   14 1
  21   12   34 1
  22   14   15 ar
  23   14   16 ar
  24   15   19 ar
  25   15   35 1
  26   16   17 ar
  27   16   36 1
  28   17   18 ar
  29   17   37 1
  30   18   19 ar
  31   18   38 1
  32   19   39 1
  33   20   21 2
  34   20   22 1
  35   22   23 1
  36   23   24 1
  37   23   40 1
  38   23   41 1
  39   24   25 ar
  40   24   29 ar
  41   25   26 ar
  42   25   42 1
  43   26   27 ar
  44   26   43 1
  45   27   28 ar
  46   27   44 1
  47   28   29 ar
  48   28   45 1
  49   29   46 1

#	End of record

