#	Name: ASD00843664
#	Creating user name:	WinNT
#	Creation time:	15. 06. 2019 18:47

#	Modifying user name:	WinNT
#	Modification time:	15. 06. 2019 18:47

#	Program:	/corina/corina34_cracker 3.40 0067  02.08.2006

@<TRIPOS>MOLECULE
ASD00843664
  87   92    0    0    0
SMALL
NO_CHARGES


@<TRIPOS>ATOM
   1 F1             5.7358    -2.5358    -1.8800 F       
   2 N2             0.9946     1.0778    -0.2008 N.ar    
   3 C3             1.1479    -0.2015    -0.4987 C.ar    
   4 C4             0.9684    -1.1804     0.4706 C.ar    
   5 C5             0.6260    -0.8000     1.7562 C.ar    
   6 C6             0.4746     0.5529     2.0282 C.ar    
   7 C7             0.6685     1.4712     1.0159 C.ar    
   8 C8             1.1436    -2.6371     0.1264 C.3     
   9 C9             0.7572    -3.5098     1.3014 C.2     
  10 C10            0.3126    -2.9989    -1.1062 C.3     
  11 C11           -1.1263    -2.6172    -0.8717 C.2     
  12 N12           -2.0671    -2.9454    -1.7793 N.am    
  13 O13           -1.4377    -2.0147     0.1338 O.2     
  14 C14           -3.4562    -2.4870    -1.6261 C.3     
  15 C15           -3.8989    -1.8286    -2.9371 C.3     
  16 N16           -3.6712    -2.7598    -4.0503 N.3     
  17 C17           -2.2424    -3.0625    -4.2080 C.3     
  18 C18           -1.7305    -3.7663    -2.9523 C.3     
  19 N19           -4.2336    -2.2412    -5.2868 N.3     
  20 C20           -4.0058    -3.1727    -6.4003 C.3     
  21 C21           -4.6799    -2.6294    -7.6624 C.3     
  22 N22           -4.1353    -1.3000    -7.9719 N.3     
  23 C23           -4.3630    -0.3685    -6.8583 C.3     
  24 C24           -3.6890    -0.9118    -5.5962 C.3     
  25 H25           -3.1544    -1.3556    -8.2019 H       
  26 O26           -0.3358    -3.5727     1.8233 O.2     
  27 N27            1.8524    -4.2022     1.6572 N.am    
  28 C28            2.6033    -2.9548    -0.1037 C.ar    
  29 C29            2.9531    -3.8998     0.8527 C.ar    
  30 C30            3.5277    -2.4976    -1.0160 C.ar    
  31 C31            4.8257    -2.9813    -0.9865 C.ar    
  32 C32            5.1871    -3.9248    -0.0366 C.ar    
  33 C33            4.2592    -4.3833     0.8787 C.ar    
  34 F34            6.4523    -4.3977    -0.0060 F       
  35 C35            1.4701    -6.8644     2.2409 C.ar    
  36 C36            0.2013    -7.0804     1.7226 C.ar    
  37 C37            2.4046    -7.8825     2.2304 C.ar    
  38 C38            2.0784    -9.1173     1.7038 C.ar    
  39 C39            0.8105    -9.3384     1.1841 C.ar    
  40 C40           -0.1287    -8.3190     1.1938 C.ar    
  41 O41            0.4901   -10.5534     0.6665 O.3     
  42 O42           -0.7173    -6.0790     1.7335 O.3     
  43 C43           -2.0032    -6.3723     1.1834 C.3     
  44 C44            1.5069   -11.5571     0.6898 C.3     
  45 O45            1.4832    -0.5615    -1.7631 O.3     
  46 C46            1.6062     0.4878    -2.7254 C.3     
  47 C47            2.0881    -0.0941    -4.0558 C.3     
  48 F48            3.2895    -0.7825    -3.8557 F       
  49 F49            1.1235    -0.9753    -4.5561 F       
  50 S50            1.8926    -5.2886     2.9064 S.o2    
  51 O51            3.2499    -5.3774     3.3175 O.2     
  52 O52            0.8361    -4.9281     3.7858 O.2     
  53 H53            0.4796    -1.5388     2.5303 H       
  54 H54            0.2075     0.8835     3.0211 H       
  55 H55            0.5523     2.5249     1.2223 H       
  56 H56            0.6948    -2.4599    -1.9731 H       
  57 H57            0.3790    -4.0717    -1.2871 H       
  58 H58           -4.1008    -3.3385    -1.4081 H       
  59 H59           -3.5152    -1.7621    -0.8142 H       
  60 H60           -4.9591    -1.5818    -2.8804 H       
  61 H61           -3.3214    -0.9186    -3.1003 H       
  62 H62           -2.1013    -3.7106    -5.0730 H       
  63 H63           -1.6881    -2.1353    -4.3535 H       
  64 H64           -0.6495    -3.8899    -3.0168 H       
  65 H65           -2.2084    -4.7415    -2.8586 H       
  66 H66           -2.9349    -3.2752    -6.5754 H       
  67 H67           -4.4289    -4.1462    -6.1524 H       
  68 H68           -4.4878    -3.3042    -8.4965 H       
  69 H69           -5.7544    -2.5525    -7.4964 H       
  70 H70           -3.9399     0.6050    -7.1062 H       
  71 H71           -5.4340    -0.2659    -6.6832 H       
  72 H72           -3.8811    -0.2369    -4.7621 H       
  73 H73           -2.6144    -0.9886    -5.7622 H       
  74 H74            3.2411    -1.7631    -1.7540 H       
  75 H75            4.5473    -5.1179     1.6161 H       
  76 H76            3.3917    -7.7124     2.6344 H       
  77 H77            2.8106    -9.9111     1.6961 H       
  78 H78           -1.1159    -8.4892     0.7902 H       
  79 H79           -2.4576    -7.1926     1.7389 H       
  80 H80           -2.6386    -5.4895     1.2544 H       
  81 H81           -1.8942    -6.6583     0.1373 H       
  82 H82            1.1209   -12.4758     0.2480 H       
  83 H83            2.3695   -11.2138     0.1187 H       
  84 H84            1.8060   -11.7475     1.7206 H       
  85 H85            0.6369     0.9657    -2.8677 H       
  86 H86            2.3259     1.2249    -2.3692 H       
  87 H87            2.2470     0.7141    -4.7696 H       
@<TRIPOS>BOND
   1    1   31 1
   2    2    3 ar
   3    2    7 ar
   4    3    4 ar
   5    3   45 1
   6    4    5 ar
   7    4    8 1
   8    5    6 ar
   9    5   53 1
  10    6    7 ar
  11    6   54 1
  12    7   55 1
  13    8    9 1
  14    8   10 1
  15    8   28 1
  16    9   26 2
  17    9   27 am
  18   10   11 1
  19   10   56 1
  20   10   57 1
  21   11   12 am
  22   11   13 2
  23   12   14 1
  24   12   18 1
  25   14   15 1
  26   14   58 1
  27   14   59 1
  28   15   16 1
  29   15   60 1
  30   15   61 1
  31   16   17 1
  32   16   19 1
  33   17   18 1
  34   17   62 1
  35   17   63 1
  36   18   64 1
  37   18   65 1
  38   19   20 1
  39   19   24 1
  40   20   21 1
  41   20   66 1
  42   20   67 1
  43   21   22 1
  44   21   68 1
  45   21   69 1
  46   22   23 1
  47   22   25 1
  48   23   24 1
  49   23   70 1
  50   23   71 1
  51   24   72 1
  52   24   73 1
  53   27   50 am
  54   27   29 1
  55   28   29 ar
  56   28   30 ar
  57   29   33 ar
  58   30   31 ar
  59   30   74 1
  60   31   32 ar
  61   32   33 ar
  62   32   34 1
  63   33   75 1
  64   35   36 ar
  65   35   37 ar
  66   35   50 1
  67   36   42 1
  68   36   40 ar
  69   37   38 ar
  70   37   76 1
  71   38   39 ar
  72   38   77 1
  73   39   40 ar
  74   39   41 1
  75   40   78 1
  76   41   44 1
  77   42   43 1
  78   43   79 1
  79   43   80 1
  80   43   81 1
  81   44   82 1
  82   44   83 1
  83   44   84 1
  84   45   46 1
  85   46   47 1
  86   46   85 1
  87   46   86 1
  88   47   48 1
  89   47   49 1
  90   47   87 1
  91   50   51 2
  92   50   52 2

#	End of record

