#	Name: ASD09740166
#	Creating user name:	WinNT
#	Creation time:	15. 06. 2019 21:22

#	Modifying user name:	WinNT
#	Modification time:	15. 06. 2019 21:22

#	Program:	/corina/corina34_cracker 3.40 0067  02.08.2006

@<TRIPOS>MOLECULE
ASD09740166
  36   38    0    0    0
SMALL
NO_CHARGES


@<TRIPOS>ATOM
   1 C1            -0.0184     1.5028     0.0103 C.3     
   2 O2             0.0917    -6.2058     0.6681 O.3     
   3 N3             0.0821    -5.0447     1.0186 N.2     
   4 C4             0.0741    -6.2812    -0.6664 C.2     
   5 N5             0.0524    -5.0534    -1.1218 N.2     
   6 C6             0.0578    -4.2598    -0.0270 C.2     
   7 C7             0.0387    -2.7757    -0.0144 C.ar    
   8 C8             1.5003    -7.9450    -1.7861 C.ar    
   9 C9             0.0124    -2.0672    -1.2138 C.ar    
  10 C10            0.0408    -2.0876     1.1964 C.ar    
  11 C11            0.0230    -0.7026     1.2015 C.ar    
  12 C12            0.0021    -0.0041     0.0020 C.ar    
  13 C13           -0.0058    -0.6867    -1.1997 C.ar    
  14 C14            2.1411    -7.4749    -2.9171 C.ar    
  15 C15            2.1842    -8.7873    -0.9232 C.ar    
  16 C16            3.4929    -9.1267    -1.2314 C.ar    
  17 C17            4.0678    -8.6178    -2.3803 C.ar    
  18 N18            3.3867    -7.8192    -3.1787 N.ar    
  19 O19            0.0249    -0.0275     2.3811 O.3     
  20 C20            0.0460    -0.8101     3.5765 C.3     
  21 C21            0.0783    -7.5421    -1.4917 C.3     
  22 H22            1.0042     1.8801     0.0026 H       
  23 H23           -0.5455     1.8639    -0.8728 H       
  24 H24           -0.5286     1.8543     0.9071 H       
  25 H25            0.0066    -2.5978    -2.1545 H       
  26 H26            0.0564    -2.6324     2.1288 H       
  27 H27           -0.0220    -0.1388    -2.1302 H       
  28 H28            1.6153    -6.8184    -3.5945 H       
  29 H29            1.7091    -9.1697    -0.0318 H       
  30 H30            4.0558    -9.7803    -0.5815 H       
  31 H31            5.0866    -8.8774    -2.6274 H       
  32 H32           -0.8356    -1.4505     3.6071 H       
  33 H33            0.9442    -1.4275     3.5909 H       
  34 H34            0.0453    -0.1494     4.4434 H       
  35 H35           -0.4183    -8.3397    -0.9392 H       
  36 H36           -0.4505    -7.3651    -2.4283 H       
@<TRIPOS>BOND
   1    1   12 1
   2    1   22 1
   3    1   23 1
   4    1   24 1
   5    2    3 1
   6    2    4 1
   7    3    6 2
   8    4    5 2
   9    4   21 1
  10    5    6 1
  11    6    7 1
  12    7    9 ar
  13    7   10 ar
  14    8   15 ar
  15    8   14 ar
  16    8   21 1
  17    9   13 ar
  18    9   25 1
  19   10   11 ar
  20   10   26 1
  21   11   12 ar
  22   11   19 1
  23   12   13 ar
  24   13   27 1
  25   14   18 ar
  26   14   28 1
  27   15   16 ar
  28   15   29 1
  29   16   17 ar
  30   16   30 1
  31   17   18 ar
  32   17   31 1
  33   19   20 1
  34   20   32 1
  35   20   33 1
  36   20   34 1
  37   21   35 1
  38   21   36 1

#	End of record

