#	Name: ASD03330430
#	Creating user name:	WinNT
#	Creation time:	15. 06. 2019 20:37

#	Modifying user name:	WinNT
#	Modification time:	15. 06. 2019 20:37

#	Program:	/corina/corina34_cracker 3.40 0067  02.08.2006

@<TRIPOS>MOLECULE
ASD03330430
  52   55    0    0    0
SMALL
NO_CHARGES


@<TRIPOS>ATOM
   1 C1            -0.4710     1.7079    -0.5439 C.3     
   2 N2            -0.5174     0.2394    -0.5127 N.3     
   3 C3             0.1496    -0.3403    -1.6927 C.3     
   4 C4             1.5040     0.3066    -1.8257 C.2     
   5 N5             1.8609     1.4536    -1.1778 N.pl3   
   6 C6             0.9624     2.1888    -0.2834 C.3     
   7 C7             2.5726    -0.0863    -2.5624 C.2     
   8 N8             3.5644     0.8116    -2.3592 N.2     
   9 C9             3.1427     1.7382    -1.5276 C.2     
  10 C10            3.9308     2.8958    -1.0526 C.ar    
  11 C11            2.6415    -1.2766    -3.4275 C.2     
  12 O12            1.6780    -2.0120    -3.5279 O.2     
  13 C13            3.8753    -2.7310    -4.8413 C.ar    
  14 N14            3.7722    -1.5508    -4.1078 N.am    
  15 C15           -1.9011    -0.2413    -0.4010 C.3     
  16 C16            3.9495     3.2214     0.3042 C.ar    
  17 C17            4.6862     4.3020     0.7417 C.ar    
  18 C18            5.4070     5.0653    -0.1620 C.ar    
  19 C19            5.3938     4.7492    -1.5092 C.ar    
  20 C20            4.6644     3.6648    -1.9597 C.ar    
  21 F21            4.6520     3.3561    -3.2749 F       
  22 Cl22           6.3305     6.4245     0.3978 Cl      
  23 C23            4.6125    -2.7530    -6.0213 C.ar    
  24 C24            3.2454    -3.8866    -4.3893 C.ar    
  25 C25            3.3452    -5.0542    -5.1116 C.ar    
  26 C26            4.0801    -5.0782    -6.3001 C.ar    
  27 C27            4.7159    -3.9172    -6.7486 C.ar    
  28 C28            4.1896    -6.3283    -7.0768 C.2     
  29 O29            3.6401    -7.3389    -6.6828 O.2     
  30 N30            4.8987    -6.3498    -8.2227 N.am    
  31 C31            5.0074    -7.5908    -8.9937 C.3     
  32 H32           -0.7991     2.0600    -1.5219 H       
  33 H33           -1.1325     2.1076     0.2246 H       
  34 H34            0.2664    -1.4157    -1.5587 H       
  35 H35           -0.4430    -0.1417    -2.5857 H       
  36 H36            1.0345     3.2573    -0.4866 H       
  37 H37            1.2337     1.9919     0.7538 H       
  38 H38            4.5143    -0.9265    -4.0867 H       
  39 H39           -2.4944     0.1660    -1.2196 H       
  40 H40           -1.9126    -1.3301    -0.4507 H       
  41 H41           -2.3229     0.0835     0.5501 H       
  42 H42            3.3877     2.6282     1.0105 H       
  43 H43            4.7008     4.5541     1.7918 H       
  44 H44            5.9575     5.3482    -2.2091 H       
  45 H45            5.1038    -1.8555    -6.3672 H       
  46 H46            2.6779    -3.8675    -3.4706 H       
  47 H47            2.8564    -5.9508    -4.7600 H       
  48 H48            5.2845    -3.9324    -7.6666 H       
  49 H49            5.3371    -5.5436    -8.5370 H       
  50 H50            5.4757    -8.3601    -8.3798 H       
  51 H51            4.0127    -7.9207    -9.2933 H       
  52 H52            5.6147    -7.4149    -9.8816 H       
@<TRIPOS>BOND
   1    1    2 1
   2    1    6 1
   3    1   32 1
   4    1   33 1
   5    2    3 1
   6    2   15 1
   7    3    4 1
   8    3   34 1
   9    3   35 1
  10    4    5 1
  11    4    7 2
  12    5    6 1
  13    5    9 1
  14    6   36 1
  15    6   37 1
  16    7    8 1
  17    7   11 1
  18    8    9 2
  19    9   10 1
  20   10   16 ar
  21   10   20 ar
  22   11   12 2
  23   11   14 am
  24   13   14 1
  25   13   23 ar
  26   13   24 ar
  27   14   38 1
  28   15   39 1
  29   15   40 1
  30   15   41 1
  31   16   17 ar
  32   16   42 1
  33   17   18 ar
  34   17   43 1
  35   18   19 ar
  36   18   22 1
  37   19   20 ar
  38   19   44 1
  39   20   21 1
  40   23   27 ar
  41   23   45 1
  42   24   25 ar
  43   24   46 1
  44   25   26 ar
  45   25   47 1
  46   26   27 ar
  47   26   28 1
  48   27   48 1
  49   28   29 2
  50   28   30 am
  51   30   31 1
  52   30   49 1
  53   31   50 1
  54   31   51 1
  55   31   52 1

#	End of record

