#	Name: ASD01410114
#	Creating user name:	WinNT
#	Creation time:	15. 06. 2019 19:16

#	Modifying user name:	WinNT
#	Modification time:	15. 06. 2019 19:16

#	Program:	/corina/corina34_cracker 3.40 0067  02.08.2006

@<TRIPOS>MOLECULE
ASD01410114
  79   83    0    0    0
SMALL
NO_CHARGES


@<TRIPOS>ATOM
   1 C1             0.2685     1.7068     0.4066 C.ar    
   2 C2             0.3561     0.3090     0.4851 C.ar    
   3 C3            -0.7723    -0.4511     0.5283 C.ar    
   4 C4            -2.0330     0.1618     0.4945 C.ar    
   5 C5            -2.1310     1.5664     0.4156 C.ar    
   6 C6            -0.9773     2.3326     0.3778 C.ar    
   7 C7            -3.3562    -0.3400     0.5233 C.2     
   8 C8            -4.2035     0.7188     0.4643 C.2     
   9 N9            -3.4743     1.8823     0.3985 N.pl3   
  10 C10           -5.6796     0.6340     0.4690 C.ar    
  11 C11           -3.7536    -1.7914     0.6043 C.3     
  12 C12           -3.1927    -2.5420    -0.6052 C.3     
  13 C13           -3.5962    -4.0155    -0.5230 C.3     
  14 C14           -3.0346    -4.6271     0.7621 C.3     
  15 C15           -3.5955    -3.8765     1.9716 C.3     
  16 C16           -3.1920    -2.4030     1.8894 C.3     
  17 C17            1.4985     2.5179     0.3604 C.2     
  18 O18            2.7040     1.9162     0.3936 O.3     
  19 C19           -4.0316     3.2351     0.3238 C.3     
  20 C20           -4.2210     3.7781     1.7167 C.2     
  21 N21           -4.7247     5.0154     1.8950 N.am    
  22 O22            1.4255     3.7289     0.2924 O.2     
  23 O23           -3.9201     3.1017     2.6774 O.2     
  24 C24           -4.9152     5.5585     3.2468 C.3     
  25 C25           -6.3665     6.0277     3.3897 C.3     
  26 C26           -6.6931     7.0127     2.2649 C.3     
  27 C27           -6.5426     6.3129     0.9121 C.3     
  28 C28           -5.0881     5.8491     0.7410 C.3     
  29 N29           -8.0738     7.4902     2.4180 N.3     
  30 C30           -8.3854     8.5273     1.4254 C.3     
  31 C31           -9.0283     6.3767     2.3333 C.3     
  32 C32           -6.4281     1.4922     1.2760 C.ar    
  33 C33           -7.8049     1.4087     1.2759 C.ar    
  34 C34           -8.4446     0.4758     0.4772 C.ar    
  35 C35           -7.7073    -0.3787    -0.3253 C.ar    
  36 C36           -6.3302    -0.3007    -0.3379 C.ar    
  37 Cl37         -10.1777     0.3766     0.4823 Cl      
  38 C38           -7.7183     9.8419     1.8350 C.3     
  39 C39          -10.3856     6.8259     2.8782 C.3     
  40 H40            1.3251    -0.1673     0.5110 H       
  41 H41           -0.6965    -1.5267     0.5884 H       
  42 H42           -1.0426     3.4090     0.3174 H       
  43 H43           -4.8407    -1.8707     0.6091 H       
  44 H44           -3.5928    -2.1063    -1.5207 H       
  45 H45           -2.1056    -2.4626    -0.6099 H       
  46 H46           -4.6833    -4.0949    -0.5183 H       
  47 H47           -3.1966    -4.5503    -1.3847 H       
  48 H48           -3.3220    -5.6769     0.8207 H       
  49 H49           -1.9475    -4.5478     0.7574 H       
  50 H50           -4.6825    -3.9559     1.9764 H       
  51 H51           -3.1954    -4.3123     2.8871 H       
  52 H52           -2.1049    -2.3236     1.8847 H       
  53 H53           -3.5916    -1.8683     2.7511 H       
  54 H54            3.4819     2.4897     0.3610 H       
  55 H55           -3.3473     3.8800    -0.2276 H       
  56 H56           -4.9935     3.2041    -0.1880 H       
  57 H57           -4.7074     4.7835     3.9846 H       
  58 H58           -4.2418     6.4018     3.4001 H       
  59 H59           -7.0344     5.1687     3.3265 H       
  60 H60           -6.4964     6.5200     4.3535 H       
  61 H61           -6.0087     7.8596     2.3137 H       
  62 H62           -7.2090     5.4512     0.8722 H       
  63 H63           -6.7980     7.0082     0.1125 H       
  64 H64           -4.4313     6.7175     0.6896 H       
  65 H65           -4.9964     5.2642    -0.1742 H       
  66 H66           -8.0121     8.2193     0.4487 H       
  67 H67           -9.4650     8.6684     1.3739 H       
  68 H68           -9.1379     6.0704     1.2929 H       
  69 H69           -8.6601     5.5369     2.9225 H       
  70 H70           -5.9302     2.2200     1.8997 H       
  71 H71           -8.3851     2.0720     1.9002 H       
  72 H72           -8.2116    -1.1048    -0.9456 H       
  73 H73           -5.7562    -0.9676    -0.9641 H       
  74 H74           -7.8775    10.5881     1.0565 H       
  75 H75           -8.1532    10.1941     2.7703 H       
  76 H76           -6.6488     9.6801     1.9698 H       
  77 H77          -10.2598     7.2201     3.8866 H       
  78 H78          -10.7972     7.6023     2.2333 H       
  79 H79          -11.0667     5.9753     2.9030 H       
@<TRIPOS>BOND
   1    1    2 ar
   2    1   17 1
   3    1    6 ar
   4    2    3 ar
   5    2   40 1
   6    3    4 ar
   7    3   41 1
   8    4    5 ar
   9    4    7 1
  10    5    6 ar
  11    5    9 1
  12    6   42 1
  13    7    8 2
  14    7   11 1
  15    8    9 1
  16    8   10 1
  17    9   19 1
  18   10   32 ar
  19   10   36 ar
  20   11   12 1
  21   11   16 1
  22   11   43 1
  23   12   13 1
  24   12   44 1
  25   12   45 1
  26   13   14 1
  27   13   46 1
  28   13   47 1
  29   14   15 1
  30   14   48 1
  31   14   49 1
  32   15   16 1
  33   15   50 1
  34   15   51 1
  35   16   52 1
  36   16   53 1
  37   17   18 1
  38   17   22 2
  39   18   54 1
  40   19   20 1
  41   19   55 1
  42   19   56 1
  43   20   21 am
  44   20   23 2
  45   21   24 1
  46   21   28 1
  47   24   25 1
  48   24   57 1
  49   24   58 1
  50   25   26 1
  51   25   59 1
  52   25   60 1
  53   26   27 1
  54   26   29 1
  55   26   61 1
  56   27   28 1
  57   27   62 1
  58   27   63 1
  59   28   64 1
  60   28   65 1
  61   29   30 1
  62   29   31 1
  63   30   38 1
  64   30   66 1
  65   30   67 1
  66   31   39 1
  67   31   68 1
  68   31   69 1
  69   32   33 ar
  70   32   70 1
  71   33   34 ar
  72   33   71 1
  73   34   35 ar
  74   34   37 1
  75   35   36 ar
  76   35   72 1
  77   36   73 1
  78   38   74 1
  79   38   75 1
  80   38   76 1
  81   39   77 1
  82   39   78 1
  83   39   79 1

#	End of record

