#	Name: ASD03330984
#	Creating user name:	WinNT
#	Creation time:	15. 06. 2019 20:38

#	Modifying user name:	WinNT
#	Modification time:	15. 06. 2019 20:38

#	Program:	/corina/corina34_cracker 3.40 0067  02.08.2006

@<TRIPOS>MOLECULE
ASD03330984
  70   73    0    0    0
SMALL
NO_CHARGES


@<TRIPOS>ATOM
   1 N1             0.2556     0.8533     0.4293 N.pl3   
   2 C2             0.1380    -0.4996     0.3386 C.2     
   3 C3             1.2764    -1.4848     0.3895 C.3     
   4 N4             2.1552    -1.1487     1.5206 N.3     
   5 C5             3.1921    -0.1954     1.1212 C.3     
   6 C6             2.6680     0.7691     0.0612 C.3     
   7 C7             1.5076     1.5880     0.6331 C.3     
   8 C8            -0.9954     1.3835     0.3080 C.2     
   9 N9            -1.8555     0.4023     0.1664 N.2     
  10 C10           -1.1849    -0.7783     0.1840 C.2     
  11 C11           -1.7819    -2.1192     0.0577 C.2     
  12 O12           -1.0719    -3.1063     0.0878 O.2     
  13 N13           -3.1148    -2.2522    -0.0912 N.am    
  14 N14           -2.3967     4.7219     0.1008 N.am    
  15 N15           -1.1403     4.9923     0.6559 N.2     
  16 C16           -0.4960     3.8650     0.7971 C.2     
  17 C17           -1.3275     2.8250     0.3322 C.2     
  18 C18           -2.4966     3.3926    -0.0914 C.2     
  19 S19           -3.5629     5.8434    -0.2523 S.o2    
  20 O20           -4.8014     5.1467    -0.2564 O.2     
  21 O21           -3.3053     6.9658     0.5802 O.2     
  22 C22           -3.2875     6.3785    -1.9083 C.ar    
  23 C23           -3.8961     5.7171    -2.9586 C.ar    
  24 C24           -3.6800     6.1369    -4.2578 C.ar    
  25 C25           -2.8558     7.2184    -4.5067 C.ar    
  26 C26           -2.2479     7.8803    -3.4564 C.ar    
  27 C27           -2.4674     7.4632    -2.1568 C.ar    
  28 C28            2.7492    -2.3591     2.1036 C.3     
  29 C29           -5.0174    -3.4850    -0.9568 C.2     
  30 C30           -3.7084    -3.5856    -0.2168 C.3     
  31 C31           -3.9537    -4.1679     1.1766 C.3     
  32 C32           -4.9754    -3.3034     1.9181 C.3     
  33 O33           -5.6514    -2.4515    -0.9297 O.2     
  34 N34           -5.4833    -4.5436    -1.6487 N.am    
  35 C35           -6.8019    -4.4805    -2.2841 C.3     
  36 C36           -4.4919    -5.5942     1.0458 C.3     
  37 C37           -2.6393    -4.1886     1.9594 C.3     
  38 H38            0.8810    -2.4919     0.5222 H       
  39 H39            1.8436    -1.4346    -0.5399 H       
  40 H40            3.5123     0.3723     1.9949 H       
  41 H41            4.0448    -0.7418     0.7180 H       
  42 H42            3.4695     1.4413    -0.2451 H       
  43 H43            2.3207     0.2034    -0.8034 H       
  44 H44            1.4534     2.5493     0.1222 H       
  45 H45            1.6661     1.7492     1.6994 H       
  46 H46           -3.6810    -1.4649    -0.1152 H       
  47 H47            0.4997     3.7495     1.1992 H       
  48 H48           -3.3462     2.8699    -0.5053 H       
  49 H49           -4.5401     4.8722    -2.7641 H       
  50 H50           -4.1549     5.6197    -5.0784 H       
  51 H51           -2.6864     7.5459    -5.5218 H       
  52 H52           -1.6037     8.7250    -3.6508 H       
  53 H53           -1.9955     7.9826    -1.3360 H       
  54 H54            3.2792    -2.9131     1.3288 H       
  55 H55            3.4479    -2.0777     2.8915 H       
  56 H56            1.9613    -2.9847     2.5231 H       
  57 H57           -3.0286    -4.2355    -0.7677 H       
  58 H58           -5.9118    -3.2887     1.3604 H       
  59 H59           -5.1501    -3.7183     2.9107 H       
  60 H60           -4.5920    -2.2873     2.0113 H       
  61 H61           -4.9457    -5.3473    -1.7260 H       
  62 H62           -7.5635    -4.3068    -1.5240 H       
  63 H63           -6.8179    -3.6653    -3.0075 H       
  64 H64           -7.0051    -5.4224    -2.7936 H       
  65 H65           -3.7345    -6.2273     0.5836 H       
  66 H66           -4.7360    -5.9825     2.0345 H       
  67 H67           -5.3885    -5.5888     0.4260 H       
  68 H68           -2.2559    -3.1725     2.0526 H       
  69 H69           -2.8141    -4.6035     2.9521 H       
  70 H70           -1.9115    -4.8045     1.4312 H       
@<TRIPOS>BOND
   1    1    2 1
   2    1    7 1
   3    1    8 1
   4    2    3 1
   5    2   10 2
   6    3    4 1
   7    3   38 1
   8    3   39 1
   9    4    5 1
  10    4   28 1
  11    5    6 1
  12    5   40 1
  13    5   41 1
  14    6    7 1
  15    6   42 1
  16    6   43 1
  17    7   44 1
  18    7   45 1
  19    8    9 2
  20    8   17 1
  21    9   10 1
  22   10   11 1
  23   11   12 2
  24   11   13 am
  25   13   30 1
  26   13   46 1
  27   14   15 1
  28   14   18 1
  29   14   19 am
  30   15   16 2
  31   16   17 1
  32   16   47 1
  33   17   18 2
  34   18   48 1
  35   19   20 2
  36   19   21 2
  37   19   22 1
  38   22   23 ar
  39   22   27 ar
  40   23   24 ar
  41   23   49 1
  42   24   25 ar
  43   24   50 1
  44   25   26 ar
  45   25   51 1
  46   26   27 ar
  47   26   52 1
  48   27   53 1
  49   28   54 1
  50   28   55 1
  51   28   56 1
  52   29   33 2
  53   29   34 am
  54   29   30 1
  55   30   31 1
  56   30   57 1
  57   31   32 1
  58   31   36 1
  59   31   37 1
  60   32   58 1
  61   32   59 1
  62   32   60 1
  63   34   35 1
  64   34   61 1
  65   35   62 1
  66   35   63 1
  67   35   64 1
  68   36   65 1
  69   36   66 1
  70   36   67 1
  71   37   68 1
  72   37   69 1
  73   37   70 1

#	End of record

