#	Name: ASD03091337
#	Creating user name:	WinNT
#	Creation time:	15. 06. 2019 20:30

#	Modifying user name:	WinNT
#	Modification time:	15. 06. 2019 20:30

#	Program:	/corina/corina34_cracker 3.40 0067  02.08.2006

@<TRIPOS>MOLECULE
ASD03091337
  36   38    0    0    0
SMALL
NO_CHARGES


@<TRIPOS>ATOM
   1 C1            -0.0181     1.5035     0.0014 C.2     
   2 C2             0.0032    -0.0033    -0.0069 C.3     
   3 O3             1.0234     2.1248    -0.0132 O.2     
   4 N4            -1.1946     2.1607     0.0195 N.am    
   5 C5            -1.2153     3.5519     0.1325 C.ar    
   6 C6            -2.4241     4.2314     0.0364 C.ar    
   7 C7            -2.4332     5.6101     0.1499 C.ar    
   8 C8            -1.2229     6.2666     0.3572 C.ar    
   9 C9            -0.0567     5.5234     0.4425 C.ar    
  10 N10           -0.0848     4.2086     0.3352 N.ar    
  11 O11           -1.1858     7.6209     0.4740 O.3     
  12 C12            0.0947     8.2190     0.6853 C.3     
  13 F13            0.9362     7.9112    -0.3891 F       
  14 F14           -0.0494     9.6072     0.7820 F       
  15 F15            0.6507     7.7242     1.8698 F       
  16 N16            5.3366    -1.8069     0.1654 N.pl3   
  17 C17            5.5196    -1.8678     1.5200 C.2     
  18 C18            4.3976    -1.4872     2.1510 C.2     
  19 C19            3.4157    -1.1555     1.1157 C.ar    
  20 C20            2.0931    -0.7084     1.1401 C.ar    
  21 C21            1.4308    -0.4854    -0.0339 C.ar    
  22 C22            2.0623    -0.6998    -1.2516 C.ar    
  23 C23            3.3663    -1.1411    -1.2987 C.ar    
  24 C24            4.0598    -1.3746    -0.1154 C.ar    
  25 H25           -0.4900    -0.3786     0.8898 H       
  26 H26           -0.5206    -0.3693    -0.8899 H       
  27 H27           -2.0270     1.6670    -0.0461 H       
  28 H28           -3.3445     3.6900    -0.1251 H       
  29 H29           -3.3574     6.1643     0.0790 H       
  30 H30            0.8858     6.0258     0.6029 H       
  31 H31            6.0077    -2.0309    -0.4982 H       
  32 H32            6.4317    -2.1767     2.0091 H       
  33 H33            4.2472    -1.4355     3.2192 H       
  34 H34            1.5952    -0.5403     2.0836 H       
  35 H35            1.5256    -0.5190    -2.1712 H       
  36 H36            3.8487    -1.3052    -2.2509 H       
@<TRIPOS>BOND
   1    1    2 1
   2    1    3 2
   3    1    4 am
   4    2   21 1
   5    2   25 1
   6    2   26 1
   7    4    5 1
   8    4   27 1
   9    5    6 ar
  10    5   10 ar
  11    6    7 ar
  12    6   28 1
  13    7    8 ar
  14    7   29 1
  15    8    9 ar
  16    8   11 1
  17    9   10 ar
  18    9   30 1
  19   11   12 1
  20   12   13 1
  21   12   14 1
  22   12   15 1
  23   16   17 1
  24   16   24 1
  25   16   31 1
  26   17   18 2
  27   17   32 1
  28   18   19 1
  29   18   33 1
  30   19   20 ar
  31   19   24 ar
  32   20   21 ar
  33   20   34 1
  34   21   22 ar
  35   22   23 ar
  36   22   35 1
  37   23   24 ar
  38   23   36 1

#	End of record

