#	Name: ASD00241034
#	Creating user name:	WinNT
#	Creation time:	15. 06. 2019 18:33

#	Modifying user name:	WinNT
#	Modification time:	15. 06. 2019 18:33

#	Program:	/corina/corina34_cracker 3.40 0067  02.08.2006

@<TRIPOS>MOLECULE
ASD00241034
  67   70    0    0    0
SMALL
NO_CHARGES


@<TRIPOS>ATOM
   1 N1             0.4709     2.4529    -1.2964 N.ar    
   2 C2             0.3403     1.1378    -1.3056 C.ar    
   3 N3             1.3691     0.3247    -1.1769 N.ar    
   4 C4             2.5990     0.8067    -1.0308 C.ar    
   5 C5             2.7899     2.1987    -1.0153 C.ar    
   6 C6             1.6621     3.0250    -1.1556 C.ar    
   7 N7             3.8446     0.2524    -0.8773 N.pl3   
   8 C8             4.7382     1.2770    -0.7749 C.2     
   9 N9             4.1175     2.4179    -0.8560 N.2     
  10 C10            4.1570    -1.1782    -0.8311 C.3     
  11 O11            5.3926    -1.3810    -0.1391 O.3     
  12 C12            6.3197    -2.0793    -0.9823 C.3     
  13 C13            5.8676    -1.7919    -2.4311 C.3     
  14 C14            4.3159    -1.7228    -2.2634 C.3     
  15 N15            7.6818    -1.5732    -0.7663 N.3     
  16 O16            3.9483    -3.1192    -2.2683 O.3     
  17 O17            6.0677    -2.9689    -3.2296 O.3     
  18 N18            1.7890     4.4030    -1.1481 N.pl3   
  19 C19            8.0659    -1.6822     0.6474 C.3     
  20 C20            4.8767    -3.7599    -3.1554 C.3     
  21 C21            5.2177    -5.1532    -2.6233 C.3     
  22 C22            4.2547    -3.8837    -4.5478 C.3     
  23 C23            9.3560    -0.9377     0.8762 C.2     
  24 C24            9.4359    -0.0435     1.8302 C.2     
  25 C25            8.2197     0.2879     2.6561 C.3     
  26 C26            8.6452    -2.2702    -1.6289 C.3     
  27 Cl27          -1.2454     0.4565    -1.4935 Cl      
  28 N28            8.5493     0.1725     4.0788 N.am    
  29 O29            7.9119     0.3180     6.3185 O.3     
  30 C30            6.8499     0.6038     7.2665 C.3     
  31 C31            5.6858    -0.3616     7.0346 C.3     
  32 C32            7.3787     0.4320     8.6919 C.3     
  33 C33            6.3661     2.0422     7.0720 C.3     
  34 C34            7.6090     0.4241     5.0110 C.2     
  35 O35            6.4878     0.7467     4.6713 O.2     
  36 H36            5.8038     1.1592    -0.6447 H       
  37 H37            3.3566    -1.7136    -0.3204 H       
  38 H38            6.2790    -3.1497    -0.7807 H       
  39 H39            6.3056    -0.8871    -2.8525 H       
  40 H40            3.8135    -1.1203    -3.0201 H       
  41 H41            2.6640     4.8089    -1.0451 H       
  42 H42            1.0031     4.9630    -1.2458 H       
  43 H43            7.2825    -1.2517     1.2710 H       
  44 H44            8.2013    -2.7321     0.9072 H       
  45 H45            4.3121    -5.7585    -2.5829 H       
  46 H46            5.9425    -5.6276    -3.2849 H       
  47 H47            5.6415    -5.0664    -1.6228 H       
  48 H48            3.9926    -2.8926    -4.9181 H       
  49 H49            4.9712    -4.3472    -5.2259 H       
  50 H50            3.3571    -4.4996    -4.4913 H       
  51 H51           10.2148    -1.1414     0.2537 H       
  52 H52           10.3733     0.4563     2.0248 H       
  53 H53            7.8995     1.3069     2.4388 H       
  54 H54            7.4149    -0.4056     2.4121 H       
  55 H55            8.3762    -2.1148    -2.6737 H       
  56 H56            9.6455    -1.8762    -1.4488 H       
  57 H57            8.6289    -3.3366    -1.4042 H       
  58 H58            9.4443    -0.0851     4.3500 H       
  59 H59            6.0304    -1.3863     7.1732 H       
  60 H60            4.8885    -0.1470     7.7463 H       
  61 H61            5.3090    -0.2391     6.0191 H       
  62 H62            8.2080     1.1197     8.8572 H       
  63 H63            6.5814     0.6465     9.4036 H       
  64 H64            7.7234    -0.5928     8.8305 H       
  65 H65            5.9893     2.1646     6.0565 H       
  66 H66            5.5688     2.2568     7.7837 H       
  67 H67            7.1954     2.7300     7.2372 H       
@<TRIPOS>BOND
   1    1    2 ar
   2    1    6 ar
   3    2    3 ar
   4    2   27 1
   5    3    4 ar
   6    4    5 ar
   7    4    7 1
   8    5    6 ar
   9    5    9 1
  10    6   18 1
  11    7    8 1
  12    7   10 1
  13    8    9 2
  14    8   36 1
  15   10   11 1
  16   10   14 1
  17   10   37 1
  18   11   12 1
  19   12   13 1
  20   12   15 1
  21   12   38 1
  22   13   14 1
  23   13   17 1
  24   13   39 1
  25   14   16 1
  26   14   40 1
  27   15   19 1
  28   15   26 1
  29   16   20 1
  30   17   20 1
  31   18   41 1
  32   18   42 1
  33   19   23 1
  34   19   43 1
  35   19   44 1
  36   20   21 1
  37   20   22 1
  38   21   45 1
  39   21   46 1
  40   21   47 1
  41   22   48 1
  42   22   49 1
  43   22   50 1
  44   23   24 2
  45   23   51 1
  46   24   25 1
  47   24   52 1
  48   25   28 1
  49   25   53 1
  50   25   54 1
  51   26   55 1
  52   26   56 1
  53   26   57 1
  54   28   34 am
  55   28   58 1
  56   29   30 1
  57   29   34 1
  58   30   31 1
  59   30   32 1
  60   30   33 1
  61   31   59 1
  62   31   60 1
  63   31   61 1
  64   32   62 1
  65   32   63 1
  66   32   64 1
  67   33   65 1
  68   33   66 1
  69   33   67 1
  70   34   35 2

#	End of record

