#	Name: ASD07480004
#	Creating user name:	WinNT
#	Creation time:	15. 06. 2019 21:11

#	Modifying user name:	WinNT
#	Modification time:	15. 06. 2019 21:11

#	Program:	/corina/corina34_cracker 3.40 0067  02.08.2006

@<TRIPOS>MOLECULE
ASD07480004
  48   52    0    0    0
SMALL
NO_CHARGES


@<TRIPOS>ATOM
   1 C1            -0.0170     1.4040     0.0098 C.2     
   2 C2             0.0021    -0.0041     0.0020 C.2     
   3 N3             1.1378    -0.6600    -0.0123 N.2     
   4 N4             2.3558     0.0267    -0.0202 N.pl3   
   5 C5             2.3710     1.4006    -0.0130 C.2     
   6 C6             1.1496     2.1021     0.0024 C.2     
   7 C7             3.6548    -0.3879    -0.0348 C.2     
   8 C8             4.4318     0.7298    -0.0363 C.2     
   9 N9             3.6351     1.7995    -0.0229 N.2     
  10 N10           -1.1985    -0.7081     0.0101 N.pl3   
  11 C11           -1.3335    -2.1721     0.0036 C.3     
  12 C12           -2.5455    -0.1093     0.0331 C.3     
  13 C13           -3.4709    -1.1913    -0.5774 C.3     
  14 C14           -2.8429    -2.4931    -0.0095 C.3     
  15 C15           -0.6971    -2.7509     1.2410 C.ar    
  16 C16           -0.2354    -4.0559     1.2360 C.ar    
  17 C17            0.3498    -4.5877     2.3728 C.ar    
  18 C18            0.4732    -3.8156     3.5119 C.ar    
  19 C19            0.0114    -2.5101     3.5168 C.ar    
  20 C20           -0.5693    -1.9771     2.3789 C.ar    
  21 F21           -0.3560    -4.8109     0.1221 F       
  22 F22            0.1316    -1.7553     4.6308 F       
  23 N23            4.1042    -1.7123    -0.0462 N.am    
  24 C24            5.4260    -1.9754    -0.0602 C.2     
  25 O25            6.2276    -1.0614    -0.0630 O.2     
  26 C26            5.9018    -3.3776    -0.0723 C.ar    
  27 N27            5.0262    -4.3794    -0.0693 N.ar    
  28 C28            7.2688    -3.6520    -0.0925 C.ar    
  29 N29            7.6883    -4.9046    -0.1032 N.ar    
  30 C30            6.8146    -5.8956    -0.0946 C.ar    
  31 C31            5.4535    -5.6260    -0.0800 C.ar    
  32 H32           -0.9601     1.9303     0.0171 H       
  33 H33            1.1400     3.1820     0.0079 H       
  34 H34            5.5116     0.7475    -0.0459 H       
  35 H35           -0.8567    -2.5843    -0.8857 H       
  36 H36           -2.8449     0.1118     1.0576 H       
  37 H37           -2.5687     0.7959    -0.5736 H       
  38 H38           -4.4967    -1.0695    -0.2295 H       
  39 H39           -3.4248    -1.1757    -1.6663 H       
  40 H40           -3.0519    -3.3394    -0.6638 H       
  41 H41           -3.2040    -2.6867     1.0006 H       
  42 H42            0.7094    -5.6060     2.3691 H       
  43 H43            0.9296    -4.2303     4.3985 H       
  44 H44           -0.9292    -0.9588     2.3827 H       
  45 H45            3.4646    -2.4416    -0.0440 H       
  46 H46            7.9832    -2.8421    -0.0999 H       
  47 H47            7.1607    -6.9186    -0.1037 H       
  48 H48            4.7430    -6.4394    -0.0727 H       
@<TRIPOS>BOND
   1    1    2 1
   2    1    6 2
   3    1   32 1
   4    2    3 2
   5    2   10 1
   6    3    4 1
   7    4    5 1
   8    4    7 1
   9    5    6 1
  10    5    9 2
  11    6   33 1
  12    7    8 2
  13    7   23 1
  14    8    9 1
  15    8   34 1
  16   10   11 1
  17   10   12 1
  18   11   15 1
  19   11   14 1
  20   11   35 1
  21   12   13 1
  22   12   36 1
  23   12   37 1
  24   13   14 1
  25   13   38 1
  26   13   39 1
  27   14   40 1
  28   14   41 1
  29   15   16 ar
  30   15   20 ar
  31   16   17 ar
  32   16   21 1
  33   17   18 ar
  34   17   42 1
  35   18   19 ar
  36   18   43 1
  37   19   20 ar
  38   19   22 1
  39   20   44 1
  40   23   24 am
  41   23   45 1
  42   24   25 2
  43   24   26 1
  44   26   27 ar
  45   26   28 ar
  46   27   31 ar
  47   28   29 ar
  48   28   46 1
  49   29   30 ar
  50   30   31 ar
  51   30   47 1
  52   31   48 1

#	End of record

