#	Name: ASD01230202
#	Creating user name:	WinNT
#	Creation time:	15. 06. 2019 19:12

#	Modifying user name:	WinNT
#	Modification time:	15. 06. 2019 19:12

#	Program:	/corina/corina34_cracker 3.40 0067  02.08.2006

@<TRIPOS>MOLECULE
ASD01230202
  23   24    0    0    0
SMALL
NO_CHARGES


@<TRIPOS>ATOM
   1 Cl1           -3.8736    -0.9627    -0.0267 Cl      
   2 C2            -0.0167     1.3839     0.0097 C.ar    
   3 N3             2.6908     0.3347    -0.2526 N.am    
   4 O4             1.7514    -1.3232     1.3413 O.2     
   5 S5             1.5516    -0.8545     0.0148 S.o2    
   6 C6             0.0021    -0.0041     0.0020 C.ar    
   7 N7             1.1520     2.1418     0.0026 N.pl3   
   8 O8             1.5662    -1.7007    -1.1266 O.2     
   9 C9            -1.1753    -0.7225    -0.0114 C.ar    
  10 C10           -2.3907    -0.0603    -0.0085 C.ar    
  11 C11           -1.2448     2.0438     0.0178 C.ar    
  12 C12           -2.4206     1.3233     0.0085 C.ar    
  13 C13            2.4435     1.4086     1.9438 C.3     
  14 C14            2.4491     1.6227     0.4289 C.3     
  15 H15            3.4636     0.1895    -0.8206 H       
  16 H16            1.1019     3.0616    -0.3014 H       
  17 H17           -1.1488    -1.8021    -0.0246 H       
  18 H18           -1.2754     3.1233     0.0309 H       
  19 H19           -3.3685     1.8408     0.0141 H       
  20 H20            3.4074     1.0080     2.2578 H       
  21 H21            2.2650     2.3602     2.4446 H       
  22 H22            1.6540     0.7051     2.2084 H       
  23 H23            3.2327     2.3312     0.1603 H       
@<TRIPOS>BOND
   1    1   10 1
   2    2    6 ar
   3    2    7 1
   4    2   11 ar
   5    3    5 am
   6    3   14 1
   7    3   15 1
   8    4    5 2
   9    5    6 1
  10    5    8 2
  11    6    9 ar
  12    7   14 1
  13    7   16 1
  14    9   10 ar
  15    9   17 1
  16   10   12 ar
  17   11   12 ar
  18   11   18 1
  19   12   19 1
  20   13   14 1
  21   13   20 1
  22   13   21 1
  23   13   22 1
  24   14   23 1

#	End of record

