#	Name: ASD00840529
#	Creating user name:	WinNT
#	Creation time:	15. 06. 2019 18:39

#	Modifying user name:	WinNT
#	Modification time:	15. 06. 2019 18:39

#	Program:	/corina/corina34_cracker 3.40 0067  02.08.2006

@<TRIPOS>MOLECULE
ASD00840529
  93   98    0    0    0
SMALL
NO_CHARGES


@<TRIPOS>ATOM
   1 N1             1.0481     1.4362    -0.7547 N.ar    
   2 C2             1.3091     0.1436    -0.8555 C.ar    
   3 C3             1.2267    -0.6839     0.2573 C.ar    
   4 C4             0.8670    -0.1382     1.4770 C.ar    
   5 C5             0.6012     1.2229     1.5408 C.ar    
   6 C6             0.7028     1.9853     0.3945 C.ar    
   7 C7             1.5245    -2.1564     0.1375 C.3     
   8 C8             1.2328    -2.8644     1.4435 C.2     
   9 C9             0.7113    -2.7755    -1.0011 C.3     
  10 C10           -0.7510    -2.4753    -0.7949 C.2     
  11 N11           -1.6707    -3.0001    -1.6288 N.am    
  12 O12           -1.1003    -1.7616     0.1213 O.2     
  13 C13           -3.0908    -2.6352    -1.5123 C.3     
  14 C14           -3.5972    -2.2035    -2.8927 C.3     
  15 N15           -3.3056    -3.2605    -3.8703 N.3     
  16 C16           -1.8586    -3.4693    -4.0137 C.3     
  17 C17           -1.2801    -3.9481    -2.6832 C.3     
  18 C18           -3.9258    -2.9627    -5.1682 C.3     
  19 C19           -3.4993    -4.0174    -6.1931 C.3     
  20 C20           -4.1962    -3.7371    -7.5264 C.3     
  21 N21           -5.6519    -3.7736    -7.3366 N.3     
  22 C22           -6.0903    -2.7381    -6.3922 C.3     
  23 C23           -5.4501    -2.9886    -5.0250 C.3     
  24 C24           -6.3536    -3.6461    -8.6209 C.3     
  25 O25            0.1571    -2.9366     1.9991 O.2     
  26 N26            2.3895    -3.3973     1.8717 N.am    
  27 C27            3.0031    -2.3816    -0.0805 C.ar    
  28 C28            3.4477    -3.1325     1.0007 C.ar    
  29 C29            3.8710    -1.9966    -1.0774 C.ar    
  30 C30            5.2060    -2.3584    -1.0092 C.ar    
  31 C31            5.6621    -3.1073     0.0640 C.ar    
  32 C32            4.7913    -3.4939     1.0648 C.ar    
  33 Cl33           6.3043    -1.8758    -2.2640 Cl      
  34 F34            6.9642    -3.4610     0.1320 F       
  35 C35            2.2510    -5.9586     2.8691 C.ar    
  36 C36            0.9999    -6.3608     2.4251 C.ar    
  37 C37            3.2701    -6.8837     2.9898 C.ar    
  38 C38            3.0439    -8.2090     2.6681 C.ar    
  39 C39            1.7976    -8.6124     2.2252 C.ar    
  40 C40            0.7753    -7.6916     2.1033 C.ar    
  41 H41            1.6234    -9.6484     1.9745 H       
  42 O42           -0.0043    -5.4529     2.3060 O.3     
  43 C43           -1.2661    -5.9381     1.8428 C.3     
  44 C44           -2.2637    -4.7802     1.7738 C.3     
  45 C45           -7.8423    -3.9361    -8.4196 C.3     
  46 O46            1.6602    -0.3793    -2.0572 O.3     
  47 C47            2.1559    -0.2291    -4.4178 C.3     
  48 C48            1.6188     0.4988    -3.1838 C.3     
  49 S49            2.5423    -4.2682     3.2719 S.o2    
  50 O50            3.9077    -4.1764     3.6546 O.2     
  51 O51            1.4704    -3.8658     4.1136 O.2     
  52 H52            0.7944    -0.7571     2.3591 H       
  53 H53            0.3176     1.6803     2.4771 H       
  54 H54            0.4974     3.0447     0.4388 H       
  55 H55            1.0382    -2.3543    -1.9518 H       
  56 H56            0.8629    -3.8549    -1.0106 H       
  57 H57           -3.6626    -3.4957    -1.1651 H       
  58 H58           -3.2004    -1.8108    -0.8078 H       
  59 H59           -4.6733    -2.0352    -2.8490 H       
  60 H60           -3.0965    -1.2828    -3.1922 H       
  61 H61           -1.6738    -4.2189    -4.7831 H       
  62 H62           -1.3822    -2.5309    -4.2977 H       
  63 H63           -0.1932    -3.9943    -2.7520 H       
  64 H64           -1.6769    -4.9350    -2.4454 H       
  65 H65           -3.6074    -1.9766    -5.5064 H       
  66 H66           -2.4189    -3.9748    -6.3310 H       
  67 H67           -3.7824    -5.0075    -5.8356 H       
  68 H68           -3.9019    -2.7526    -7.8901 H       
  69 H69           -3.9057    -4.4947    -8.2543 H       
  70 H70           -5.7872    -1.7582    -6.7612 H       
  71 H71           -7.1756    -2.7701    -6.2964 H       
  72 H72           -5.7638    -3.9625    -4.6492 H       
  73 H73           -5.7634    -2.2109    -4.3285 H       
  74 H74           -6.2292    -2.6332    -9.0038 H       
  75 H75           -5.9380    -4.3578    -9.3342 H       
  76 H76            3.5110    -1.4133    -1.9120 H       
  77 H77            5.1534    -4.0772     1.8985 H       
  78 H78            4.2444    -6.5710     3.3355 H       
  79 H79            3.8421    -8.9304     2.7625 H       
  80 H80           -0.1981    -8.0073     1.7580 H       
  81 H81           -1.1459    -6.3738     0.8509 H       
  82 H82           -1.6379    -6.6976     2.5306 H       
  83 H83           -2.3839    -4.3445     2.7657 H       
  84 H84           -1.8918    -4.0207     1.0860 H       
  85 H85           -3.2261    -5.1503     1.4205 H       
  86 H86           -7.9666    -4.9490    -8.0366 H       
  87 H87           -8.2579    -3.2244    -7.7062 H       
  88 H88           -8.3630    -3.8414    -9.3725 H       
  89 H89            2.2063     0.4657    -5.2562 H       
  90 H90            3.1527    -0.6160    -4.2061 H       
  91 H91            1.4914    -1.0554    -4.6701 H       
  92 H92            0.5898     0.8096    -3.3646 H       
  93 H93            2.2335     1.3763    -2.9834 H       
@<TRIPOS>BOND
   1    1    2 ar
   2    1    6 ar
   3    2    3 ar
   4    2   46 1
   5    3    4 ar
   6    3    7 1
   7    4    5 ar
   8    4   52 1
   9    5    6 ar
  10    5   53 1
  11    6   54 1
  12    7    8 1
  13    7    9 1
  14    7   27 1
  15    8   25 2
  16    8   26 am
  17    9   10 1
  18    9   55 1
  19    9   56 1
  20   10   11 am
  21   10   12 2
  22   11   13 1
  23   11   17 1
  24   13   14 1
  25   13   57 1
  26   13   58 1
  27   14   15 1
  28   14   59 1
  29   14   60 1
  30   15   16 1
  31   15   18 1
  32   16   17 1
  33   16   61 1
  34   16   62 1
  35   17   63 1
  36   17   64 1
  37   18   19 1
  38   18   23 1
  39   18   65 1
  40   19   20 1
  41   19   66 1
  42   19   67 1
  43   20   21 1
  44   20   68 1
  45   20   69 1
  46   21   22 1
  47   21   24 1
  48   22   23 1
  49   22   70 1
  50   22   71 1
  51   23   72 1
  52   23   73 1
  53   24   45 1
  54   24   74 1
  55   24   75 1
  56   26   49 am
  57   26   28 1
  58   27   28 ar
  59   27   29 ar
  60   28   32 ar
  61   29   30 ar
  62   29   76 1
  63   30   31 ar
  64   30   33 1
  65   31   32 ar
  66   31   34 1
  67   32   77 1
  68   35   36 ar
  69   35   37 ar
  70   35   49 1
  71   36   42 1
  72   36   40 ar
  73   37   38 ar
  74   37   78 1
  75   38   39 ar
  76   38   79 1
  77   39   40 ar
  78   39   41 1
  79   40   80 1
  80   42   43 1
  81   43   44 1
  82   43   81 1
  83   43   82 1
  84   44   83 1
  85   44   84 1
  86   44   85 1
  87   45   86 1
  88   45   87 1
  89   45   88 1
  90   46   48 1
  91   47   48 1
  92   47   89 1
  93   47   90 1
  94   47   91 1
  95   48   92 1
  96   48   93 1
  97   49   50 2
  98   49   51 2

#	End of record

