#	Name: ASD01380003
#	Creating user name:	WinNT
#	Creation time:	15. 06. 2019 19:16

#	Modifying user name:	WinNT
#	Modification time:	15. 06. 2019 19:16

#	Program:	/corina/corina34_cracker 3.40 0067  02.08.2006

@<TRIPOS>MOLECULE
ASD01380003
  35   38    0    0    0
SMALL
NO_CHARGES


@<TRIPOS>ATOM
   1 F1             0.0021    -0.0041     0.0020 F       
   2 C2            -0.0169     1.3948     0.0097 C.3     
   3 C3             1.3969     1.9164    -0.0010 C.2     
   4 N4             2.4596     1.2121    -0.2917 N.2     
   5 N5             3.5661     2.0702    -0.1841 N.pl3   
   6 C6             3.0692     3.2846     0.1800 C.2     
   7 N7             1.7566     3.1654     0.2781 N.2     
   8 C8             3.8502     4.5074     0.4155 C.2     
   9 N9             5.1633     4.6131     0.3080 N.2     
  10 C10            5.5404     5.8533     0.5895 C.2     
  11 C11            4.4031     6.5853     0.8953 C.2     
  12 N12            3.3361     5.7214     0.7756 N.pl3   
  13 C13            2.0658     6.1630     1.0182 C.2     
  14 C14            1.8415     7.4443     1.3757 C.2     
  15 C15            2.9117     8.3471     1.5047 C.2     
  16 C16            4.1830     7.9252     1.2639 C.2     
  17 C17            6.9545     6.3744     0.5793 C.3     
  18 C18            7.2855     6.9020    -0.7930 C.ar    
  19 C19            7.0468     8.2274    -1.1203 C.ar    
  20 N20            7.3504     8.6551    -2.3353 N.ar    
  21 C21            7.8728     7.8380    -3.2278 C.ar    
  22 N22            8.1135     6.5719    -2.9521 N.ar    
  23 C23            7.8413     6.0748    -1.7563 C.ar    
  24 F24           -0.6935     1.8582    -1.1237 F       
  25 F25           -0.6717     1.8460     1.1607 F       
  26 H26            4.4967     1.8434    -0.3376 H       
  27 H27            1.2343     5.4805     0.9225 H       
  28 H28            0.8322     7.7793     1.5638 H       
  29 H29            2.7255     9.3717     1.7910 H       
  30 H30            5.0133     8.6092     1.3596 H       
  31 H31            7.0511     7.1772     1.3102 H       
  32 H32            7.6411     5.5669     0.8335 H       
  33 H33            6.6186     8.9021    -0.3938 H       
  34 H34            8.1097     8.2160    -4.2114 H       
  35 H35            8.0409     5.0364    -1.5368 H       
@<TRIPOS>BOND
   1    1    2 1
   2    2    3 1
   3    2   24 1
   4    2   25 1
   5    3    4 2
   6    3    7 1
   7    4    5 1
   8    5    6 1
   9    5   26 1
  10    6    7 2
  11    6    8 1
  12    8    9 2
  13    8   12 1
  14    9   10 1
  15   10   11 2
  16   10   17 1
  17   11   12 1
  18   11   16 1
  19   12   13 1
  20   13   14 2
  21   13   27 1
  22   14   15 1
  23   14   28 1
  24   15   16 2
  25   15   29 1
  26   16   30 1
  27   17   18 1
  28   17   31 1
  29   17   32 1
  30   18   19 ar
  31   18   23 ar
  32   19   20 ar
  33   19   33 1
  34   20   21 ar
  35   21   22 ar
  36   21   34 1
  37   22   23 ar
  38   23   35 1

#	End of record

