#	Name: ASD01900002
#	Creating user name:	WinNT
#	Creation time:	15. 06. 2019 19:51

#	Modifying user name:	WinNT
#	Modification time:	15. 06. 2019 19:51

#	Program:	/corina/corina34_cracker 3.40 0067  02.08.2006

@<TRIPOS>MOLECULE
ASD01900002
  47   50    0    0    0
SMALL
NO_CHARGES


@<TRIPOS>ATOM
   1 N1            -0.0158     1.3173     0.0093 N.ar    
   2 C2             0.0021    -0.0041     0.0020 C.ar    
   3 N3             1.1188    -0.6982    -0.0119 N.ar    
   4 C4             2.3006    -0.0843    -0.0199 C.ar    
   5 C5             2.3349     1.3237    -0.0131 C.ar    
   6 C6             1.1111     2.0206     0.0023 C.ar    
   7 N7             1.0834     3.4014     0.0100 N.3     
   8 N8             3.6002    -0.5047    -0.0349 N.pl3   
   9 N9             4.4261     0.6265    -0.0374 N.2     
  10 C10            3.6944     1.7046    -0.0247 C.2     
  11 C11            4.0322    -1.8369    -0.0452 C.ar    
  12 C12           -0.2978     3.8999     0.0259 C.3     
  13 C13           -0.2903     5.4224     0.1807 C.3     
  14 C14            0.4836     6.0452    -0.9845 C.3     
  15 C15            1.9037     5.4731    -1.0076 C.3     
  16 C16            1.8326     3.9492    -1.1280 C.3     
  17 C17            5.1763    -2.1920    -0.7477 C.ar    
  18 C18            5.5997    -3.5066    -0.7560 C.ar    
  19 C19            4.8854    -4.4689    -0.0660 C.ar    
  20 C20            3.7455    -4.1186     0.6341 C.ar    
  21 C21            3.3206    -2.8046     0.6517 C.ar    
  22 C22           -1.7288     5.9435     0.1752 C.3     
  23 C23            2.9699    -5.1706     1.3842 C.3     
  24 C24            6.8411    -3.8927    -1.5181 C.3     
  25 H25           -0.9383    -0.5352     0.0081 H       
  26 H26            4.0655     2.7188    -0.0236 H       
  27 H27           -0.7912     3.6323    -0.9085 H       
  28 H28           -0.8358     3.4525     0.8616 H       
  29 H29            0.1908     5.6901     1.1215 H       
  30 H30           -0.0191     5.8102    -1.9226 H       
  31 H31            0.5286     7.1266    -0.8552 H       
  32 H32            2.4464     5.8806    -1.8605 H       
  33 H33            2.4192     5.7416    -0.0855 H       
  34 H34            2.8418     3.5375    -1.1303 H       
  35 H35            1.3291     3.6814    -2.0570 H       
  36 H36            5.7341    -1.4410    -1.2874 H       
  37 H37            5.2184    -5.4962    -0.0743 H       
  38 H38            2.4302    -2.5317     1.1987 H       
  39 H39           -2.2801     5.4972     1.0028 H       
  40 H40           -1.7228     7.0279     0.2855 H       
  41 H41           -2.2082     5.6768    -0.7667 H       
  42 H42            3.3517    -5.2467     2.4023 H       
  43 H43            1.9157    -4.8947     1.4112 H       
  44 H44            3.0812    -6.1315     0.8817 H       
  45 H45            7.7096    -3.8078    -0.8649 H       
  46 H46            6.7481    -4.9212    -1.8669 H       
  47 H47            6.9636    -3.2286    -2.3736 H       
@<TRIPOS>BOND
   1    1    2 ar
   2    1    6 ar
   3    2    3 ar
   4    2   25 1
   5    3    4 ar
   6    4    5 ar
   7    4    8 1
   8    5    6 ar
   9    5   10 1
  10    6    7 1
  11    7   12 1
  12    7   16 1
  13    8    9 1
  14    8   11 1
  15    9   10 2
  16   10   26 1
  17   11   17 ar
  18   11   21 ar
  19   12   13 1
  20   12   27 1
  21   12   28 1
  22   13   14 1
  23   13   22 1
  24   13   29 1
  25   14   15 1
  26   14   30 1
  27   14   31 1
  28   15   16 1
  29   15   32 1
  30   15   33 1
  31   16   34 1
  32   16   35 1
  33   17   18 ar
  34   17   36 1
  35   18   19 ar
  36   18   24 1
  37   19   20 ar
  38   19   37 1
  39   20   21 ar
  40   20   23 1
  41   21   38 1
  42   22   39 1
  43   22   40 1
  44   22   41 1
  45   23   42 1
  46   23   43 1
  47   23   44 1
  48   24   45 1
  49   24   46 1
  50   24   47 1

#	End of record

