#	Name: ASD03330838
#	Creating user name:	WinNT
#	Creation time:	15. 06. 2019 20:38

#	Modifying user name:	WinNT
#	Modification time:	15. 06. 2019 20:38

#	Program:	/corina/corina34_cracker 3.40 0067  02.08.2006

@<TRIPOS>MOLECULE
ASD03330838
  59   61    0    0    0
SMALL
NO_CHARGES


@<TRIPOS>ATOM
   1 C1            -0.4852     1.7220    -0.5256 C.2     
   2 N2            -0.5702     0.3887    -0.7762 N.pl3   
   3 C3             0.8388     2.0402    -0.4958 C.2     
   4 N4             1.5394     0.9120    -0.7435 N.2     
   5 C5             0.7019    -0.0830    -0.9187 C.2     
   6 C6             1.0750    -1.4824    -1.2200 C.ar    
   7 C7             0.5023    -2.5407    -0.5062 C.ar    
   8 C8             1.4055     3.3762    -0.2400 C.2     
   9 O9             0.6675     4.3197    -0.0296 O.2     
  10 C10            3.3052     4.8807     0.0150 C.3     
  11 N11            2.7417     3.5525    -0.2393 N.am    
  12 C12            0.8846    -3.8316    -0.8269 C.ar    
  13 C13            1.8118    -4.0334    -1.8331 C.ar    
  14 N14            2.3364    -3.0167    -2.4899 N.ar    
  15 C15            2.0003    -1.7698    -2.2255 C.ar    
  16 C16           -1.8133    -0.3829    -0.8590 C.3     
  17 C17           -2.8127     0.3682    -1.7444 C.3     
  18 C18           -3.6134     1.3524    -0.8980 C.3     
  19 N19           -2.7967     1.9009     0.1865 N.3     
  20 C20           -1.6507     2.6583    -0.3382 C.3     
  21 C21           -3.6072     2.7299     1.0885 C.3     
  22 C22            3.4222     5.1047     1.5240 C.3     
  23 C23            4.2833     3.9993     2.1384 C.3     
  24 C24            4.0721     6.4642     1.7888 C.3     
  25 C25            2.0281     5.0746     2.1536 C.3     
  26 C26            4.6711     4.9758    -0.6144 C.2     
  27 O27            5.2713     3.9660    -0.9164 O.2     
  28 N28            5.2259     6.1829    -0.8416 N.am    
  29 C29            6.5075     6.2794    -1.5447 C.3     
  30 Cl30           2.7253    -0.4736    -3.1243 Cl      
  31 H31           -0.2195    -2.3549     0.2754 H       
  32 H32            2.6530     5.6405    -0.4157 H       
  33 H33            3.3303     2.8000    -0.4071 H       
  34 H34            0.4635    -4.6728    -0.2965 H       
  35 H35            2.1116    -5.0399    -2.0850 H       
  36 H36           -1.6066    -1.3615    -1.2922 H       
  37 H37           -2.2325    -0.5066     0.1395 H       
  38 H38           -2.2727     0.9122    -2.5194 H       
  39 H39           -3.4920    -0.3457    -2.2103 H       
  40 H40           -3.9614     2.1684    -1.5315 H       
  41 H41           -4.4754     0.8390    -0.4720 H       
  42 H42           -1.3782     3.4427     0.3680 H       
  43 H43           -1.9169     3.1052    -1.2961 H       
  44 H44           -4.4028     2.1241     1.5222 H       
  45 H45           -2.9760     3.1247     1.8846 H       
  46 H46           -4.0443     3.5563     0.5279 H       
  47 H47            5.2765     4.0208     1.6898 H       
  48 H48            4.3667     4.1589     3.2134 H       
  49 H49            3.8203     3.0308     1.9497 H       
  50 H50            3.4610     7.2513     1.3471 H       
  51 H51            4.1512     6.6258     2.8639 H       
  52 H52            5.0671     6.4840     1.3443 H       
  53 H53            1.5650     4.1060     1.9649 H       
  54 H54            2.1114     5.2341     3.2287 H       
  55 H55            1.4146     5.8620     1.7159 H       
  56 H56            4.7765     6.9877    -0.5397 H       
  57 H57            6.4105     5.8429    -2.5387 H       
  58 H58            6.7948     7.3270    -1.6344 H       
  59 H59            7.2710     5.7401    -0.9840 H       
@<TRIPOS>BOND
   1    1    2 1
   2    1    3 2
   3    1   20 1
   4    2   16 1
   5    2    5 1
   6    3    4 1
   7    3    8 1
   8    4    5 2
   9    5    6 1
  10    6    7 ar
  11    6   15 ar
  12    7   12 ar
  13    7   31 1
  14    8    9 2
  15    8   11 am
  16   10   11 1
  17   10   22 1
  18   10   26 1
  19   10   32 1
  20   11   33 1
  21   12   13 ar
  22   12   34 1
  23   13   14 ar
  24   13   35 1
  25   14   15 ar
  26   15   30 1
  27   16   17 1
  28   16   36 1
  29   16   37 1
  30   17   18 1
  31   17   38 1
  32   17   39 1
  33   18   19 1
  34   18   40 1
  35   18   41 1
  36   19   20 1
  37   19   21 1
  38   20   42 1
  39   20   43 1
  40   21   44 1
  41   21   45 1
  42   21   46 1
  43   22   23 1
  44   22   24 1
  45   22   25 1
  46   23   47 1
  47   23   48 1
  48   23   49 1
  49   24   50 1
  50   24   51 1
  51   24   52 1
  52   25   53 1
  53   25   54 1
  54   25   55 1
  55   26   27 2
  56   26   28 am
  57   28   29 1
  58   28   56 1
  59   29   57 1
  60   29   58 1
  61   29   59 1

#	End of record

