#	Name: ASD00431081
#	Creating user name:	WinNT
#	Creation time:	15. 06. 2019 18:35

#	Modifying user name:	WinNT
#	Modification time:	15. 06. 2019 18:35

#	Program:	/corina/corina34_cracker 3.40 0067  02.08.2006

@<TRIPOS>MOLECULE
ASD00431081
  51   53    0    0    0
SMALL
NO_CHARGES


@<TRIPOS>ATOM
   1 N1             0.3725     1.1401    -0.0516 N.am    
   2 C2             0.3623    -0.2066     0.0008 C.2     
   3 O3             1.4083    -0.8192     0.0950 O.2     
   4 N4            -0.8073    -0.8742    -0.0511 N.am    
   5 C5             1.6439     1.8658     0.0049 C.3     
   6 C6             2.2443     1.9528    -1.3997 C.3     
   7 C7             1.4058     3.2557     0.5364 C.ar    
   8 C8             2.3049     3.8186     1.4188 C.ar    
   9 C9             2.0831     5.1062     1.9097 C.ar    
  10 C10            0.9515     5.8160     1.5037 C.ar    
  11 C11            0.0607     5.2416     0.6211 C.ar    
  12 C12            0.2893     3.9666     0.1341 C.ar    
  13 S13            4.5126     4.9639     3.4685 S.3     
  14 C14            4.8546     6.3608     4.3926 C.2     
  15 N15            3.9309     7.2538     4.2172 N.2     
  16 C16            2.9448     6.9445     3.4020 C.2     
  17 C17            3.0416     5.7153     2.8555 C.2     
  18 O18            5.9359     6.5127     5.1943 O.3     
  19 C19            6.1248     7.7207     5.7890 C.ar    
  20 C20            5.2377     8.1623     6.7599 C.ar    
  21 C21            5.4297     9.3894     7.3639 C.ar    
  22 C22            6.5094    10.1803     6.9998 C.ar    
  23 C23            7.3965     9.7389     6.0291 C.ar    
  24 C24            7.2079     8.5093     5.4290 C.ar    
  25 O25            6.6981    11.3886     7.5942 O.3     
  26 C26            7.8734    12.1148     7.2290 C.3     
  27 C27            7.6617    13.6034     7.5120 C.3     
  28 C28            9.0625    11.6046     8.0455 C.3     
  29 H29           -0.4617     1.6287    -0.1308 H       
  30 H30           -1.6418    -0.3854    -0.1263 H       
  31 H31           -0.8147    -1.8434    -0.0134 H       
  32 H32            2.3343     1.3384     0.6632 H       
  33 H33            2.4165     0.9475    -1.7841 H       
  34 H34            1.5539     2.4802    -2.0579 H       
  35 H35            3.1903     2.4927    -1.3576 H       
  36 H36            3.1781     3.2640     1.7292 H       
  37 H37            0.7739     6.8126     1.8802 H       
  38 H38           -0.8150     5.7896     0.3063 H       
  39 H39           -0.4091     3.5229    -0.5599 H       
  40 H40            2.1276     7.6176     3.1891 H       
  41 H41            4.3968     7.5466     7.0432 H       
  42 H42            4.7389     9.7333     8.1195 H       
  43 H43            8.2370    10.3550     5.7454 H       
  44 H44            7.9011     8.1637     4.6764 H       
  45 H45            8.0737    11.9717     6.1672 H       
  46 H46            7.4614    13.7465     8.5739 H       
  47 H47            8.5581    14.1574     7.2335 H       
  48 H48            6.8145    13.9669     6.9303 H       
  49 H49            9.2133    10.5441     7.8439 H       
  50 H50            9.9590    12.1585     7.7670 H       
  51 H51            8.8622    11.7477     9.1074 H       
@<TRIPOS>BOND
   1    1    2 am
   2    1    5 1
   3    1   29 1
   4    2    3 2
   5    2    4 am
   6    4   30 1
   7    4   31 1
   8    5    6 1
   9    5    7 1
  10    5   32 1
  11    6   33 1
  12    6   34 1
  13    6   35 1
  14    7    8 ar
  15    7   12 ar
  16    8    9 ar
  17    8   36 1
  18    9   10 ar
  19    9   17 1
  20   10   11 ar
  21   10   37 1
  22   11   12 ar
  23   11   38 1
  24   12   39 1
  25   13   14 1
  26   13   17 1
  27   14   15 2
  28   14   18 1
  29   15   16 1
  30   16   17 2
  31   16   40 1
  32   18   19 1
  33   19   20 ar
  34   19   24 ar
  35   20   21 ar
  36   20   41 1
  37   21   22 ar
  38   21   42 1
  39   22   23 ar
  40   22   25 1
  41   23   24 ar
  42   23   43 1
  43   24   44 1
  44   25   26 1
  45   26   27 1
  46   26   28 1
  47   26   45 1
  48   27   46 1
  49   27   47 1
  50   27   48 1
  51   28   49 1
  52   28   50 1
  53   28   51 1

#	End of record

