#	Name: ASD02500313
#	Creating user name:	WinNT
#	Creation time:	15. 06. 2019 20:22

#	Modifying user name:	WinNT
#	Modification time:	15. 06. 2019 20:22

#	Program:	/corina/corina34_cracker 3.40 0067  02.08.2006

@<TRIPOS>MOLECULE
ASD02500313
  59   63    0    0    0
SMALL
NO_CHARGES


@<TRIPOS>ATOM
   1 C1             0.2841     1.2295     0.6367 C.ar    
   2 C2             0.0668    -0.1072     0.3532 C.ar    
   3 C3             1.1351    -0.9703     0.2227 C.ar    
   4 C4             2.4373    -0.4924     0.3773 C.ar    
   5 C5             2.6496     0.8572     0.6632 C.ar    
   6 C6             1.5725     1.7097     0.7911 C.ar    
   7 S7            -1.0856     2.3266     0.7946 S.o2    
   8 O8            -0.5879     3.6307     0.5287 O.2     
   9 O9            -2.1557     1.7397     0.0667 O.2     
  10 N10           -1.5415     2.3156     2.3866 N.am    
  11 N11           -1.4887     1.0816     4.9043 N.ar    
  12 C12           -1.4900     0.4840     6.0710 C.ar    
  13 C13           -0.6047     0.8504     7.0827 C.ar    
  14 C14            0.2942     1.8563     6.8702 C.ar    
  15 C15            0.2919     2.4954     5.6155 C.ar    
  16 C16            1.1878     3.5370     5.3258 C.ar    
  17 C17            1.1614     4.1353     4.1025 C.ar    
  18 C18            0.2559     3.7302     3.1266 C.ar    
  19 C19           -0.6391     2.7117     3.3729 C.ar    
  20 C20           -0.6354     2.0724     4.6322 C.ar    
  21 C21            3.5869    -1.4118     0.2393 C.2     
  22 O22            3.6042    -2.4599     0.8546 O.2     
  23 N23            4.6157    -1.0878    -0.5689 N.am    
  24 C24            5.6841    -2.0583    -0.8453 C.3     
  25 C25            5.8068    -2.2326    -2.3642 C.3     
  26 N26            5.8801    -0.9026    -2.9851 N.am    
  27 C27            4.8117     0.0680    -2.7086 C.3     
  28 C28            4.6860     0.2403    -1.1942 C.3     
  29 C29            6.9840     0.7754    -4.3902 C.ar    
  30 C30            8.2172     1.2878    -4.7871 C.ar    
  31 C31            8.2708     2.5534    -5.3492 C.ar    
  32 C32            7.0888     3.2629    -5.4948 C.ar    
  33 C33            5.8976     2.6911    -5.0777 C.ar    
  34 N34            5.8753     1.4878    -4.5473 N.ar    
  35 C35            6.9089    -0.5786    -3.7932 C.2     
  36 O36            7.7748    -1.3969    -4.0323 O.2     
  37 H37           -0.9414    -0.4757     0.2342 H       
  38 H38            0.9641    -2.0135     0.0018 H       
  39 H39            3.6547     1.2332     0.7844 H       
  40 H40            1.7353     2.7542     1.0123 H       
  41 H41           -2.4363     2.0337     2.6329 H       
  42 H42           -2.1958    -0.3129     6.2529 H       
  43 H43           -0.6297     0.3398     8.0340 H       
  44 H44            0.9874     2.1536     7.6432 H       
  45 H45            1.8967     3.8637     6.0722 H       
  46 H46            1.8532     4.9361     3.8868 H       
  47 H47            0.2543     4.2204     2.1643 H       
  48 H48            6.6270    -1.6891    -0.4421 H       
  49 H49            5.4367    -3.0154    -0.3861 H       
  50 H50            6.7114    -2.7949    -2.5959 H       
  51 H51            4.9347    -2.7656    -2.7429 H       
  52 H52            5.0591     1.0251    -3.1678 H       
  53 H53            3.8687    -0.3012    -3.1118 H       
  54 H54            3.7797     0.8009    -0.9653 H       
  55 H55            5.5563     0.7769    -0.8164 H       
  56 H56            9.1186     0.7071    -4.6584 H       
  57 H57            9.2121     2.9775    -5.6663 H       
  58 H58            7.0964     4.2519    -5.9288 H       
  59 H59            4.9749     3.2410    -5.1896 H       
@<TRIPOS>BOND
   1    1    2 ar
   2    1    6 ar
   3    1    7 1
   4    2    3 ar
   5    2   37 1
   6    3    4 ar
   7    3   38 1
   8    4    5 ar
   9    4   21 1
  10    5    6 ar
  11    5   39 1
  12    6   40 1
  13    7    8 2
  14    7    9 2
  15    7   10 am
  16   10   19 1
  17   10   41 1
  18   11   12 ar
  19   11   20 ar
  20   12   13 ar
  21   12   42 1
  22   13   14 ar
  23   13   43 1
  24   14   15 ar
  25   14   44 1
  26   15   16 ar
  27   15   20 ar
  28   16   17 ar
  29   16   45 1
  30   17   18 ar
  31   17   46 1
  32   18   19 ar
  33   18   47 1
  34   19   20 ar
  35   21   22 2
  36   21   23 am
  37   23   24 1
  38   23   28 1
  39   24   25 1
  40   24   48 1
  41   24   49 1
  42   25   26 1
  43   25   50 1
  44   25   51 1
  45   26   27 1
  46   26   35 am
  47   27   28 1
  48   27   52 1
  49   27   53 1
  50   28   54 1
  51   28   55 1
  52   29   30 ar
  53   29   34 ar
  54   29   35 1
  55   30   31 ar
  56   30   56 1
  57   31   32 ar
  58   31   57 1
  59   32   33 ar
  60   32   58 1
  61   33   34 ar
  62   33   59 1
  63   35   36 2

#	End of record

