#	Name: ASD00230010
#	Creating user name:	WinNT
#	Creation time:	15. 06. 2019 18:33

#	Modifying user name:	WinNT
#	Modification time:	15. 06. 2019 18:33

#	Program:	/corina/corina34_cracker 3.40 0067  02.08.2006

@<TRIPOS>MOLECULE
ASD00230010
  27   26    0    0    0
SMALL
NO_CHARGES


@<TRIPOS>ATOM
   1 N1            -0.0239     0.0178     0.2526 Du      
   2 C2             0.0830     1.4913    -0.0068 C.3     
   3 C3             1.5477     1.9219     0.0937 C.3     
   4 C4             3.3533     3.9276     0.0782 C.2     
   5 C5             3.9531     5.3082     0.0056 C.3     
   6 O6             4.0705     2.9623     0.2386 O.2     
   7 C7            -1.5154     0.1433     0.3507 C.3     
   8 C8             0.6197    -0.2623    -1.0730 C.3     
   9 C9            -0.1308    -1.4557     0.5121 C.3     
  10 S10            1.6599     3.7214    -0.0656 S.3     
  11 H11            0.5979     0.1312     1.1529 H       
  12 H12           -0.2930     1.7126    -1.0057 H       
  13 H13           -0.5068     2.0340     0.7319 H       
  14 H14            1.9507     1.6168     1.0595 H       
  15 H15            2.1207     1.4501    -0.7045 H       
  16 H16            5.0353     5.2404     0.1163 H       
  17 H17            3.7139     5.7580    -0.9581 H       
  18 H18            3.5439     5.9247     0.8059 H       
  19 H19           -1.9101     0.5295    -0.5891 H       
  20 H20           -1.9499    -0.8359     0.5522 H       
  21 H21           -1.7701     0.8273     1.1602 H       
  22 H22            0.7089     0.6661    -1.6370 H       
  23 H23            1.6107    -0.6870    -0.9133 H       
  24 H24            0.0071    -0.9696    -1.6321 H       
  25 H25           -0.5976    -1.6207     1.4832 H       
  26 H26           -0.7376    -1.9186    -0.2661 H       
  27 H27            0.8652    -1.8986     0.5078 H       
@<TRIPOS>BOND
   1    1    2 1
   2    1    7 1
   3    1    8 1
   4    1    9 1
   5    1   11 1
   6    2    3 1
   7    2   12 1
   8    2   13 1
   9    3   10 1
  10    3   14 1
  11    3   15 1
  12    4    5 1
  13    4    6 2
  14    4   10 1
  15    5   16 1
  16    5   17 1
  17    5   18 1
  18    7   19 1
  19    7   20 1
  20    7   21 1
  21    8   22 1
  22    8   23 1
  23    8   24 1
  24    9   25 1
  25    9   26 1
  26    9   27 1

#	End of record

