#	Name: ASD00431067
#	Creating user name:	WinNT
#	Creation time:	15. 06. 2019 18:35

#	Modifying user name:	WinNT
#	Modification time:	15. 06. 2019 18:35

#	Program:	/corina/corina34_cracker 3.40 0067  02.08.2006

@<TRIPOS>MOLECULE
ASD00431067
  65   66    0    0    0
SMALL
NO_CHARGES


@<TRIPOS>ATOM
   1 C1            -0.7916     1.7019     0.7931 C.2     
   2 C2            -1.0834     0.2445     0.9111 C.3     
   3 C3            -1.6986    -0.2642    -0.4079 C.3     
   4 C4            -0.6526     0.1632    -1.4864 C.3     
   5 C5             0.7024    -0.3778    -1.0554 C.3     
   6 C6             1.7179     0.6969    -0.7979 C.3     
   7 C7             1.6610     1.3742     0.5518 C.3     
   8 C8             0.3923     2.2138     0.6637 C.2     
   9 N9             0.7518     3.5504     0.6457 N.am    
  10 C10           -0.2242     4.6424     0.6118 C.3     
  11 C11           -0.5802     5.0418     2.0206 C.2     
  12 C12           -1.8359     5.0864     2.3913 C.2     
  13 C13           -2.9293     4.8820     1.3747 C.3     
  14 C14           -2.1869     5.3422     3.8344 C.3     
  15 C15           -2.4535     6.8351     4.0375 C.3     
  16 C16           -2.8045     7.0909     5.4805 C.2     
  17 C17           -2.1251     7.9704     6.1739 C.2     
  18 C18           -0.9924     8.7264     5.5286 C.3     
  19 C19           -2.4761     8.2262     7.6170 C.3     
  20 C20            2.7907     2.4222     0.6383 C.3     
  21 C21            2.0741     3.7510     0.6625 C.2     
  22 O22            2.6154     4.8360     0.6923 O.2     
  23 C23            3.6008     2.2292     1.9218 C.3     
  24 C24            4.7923     3.1518     1.9074 C.2     
  25 O25            5.6508     3.1556     2.9392 O.3     
  26 O26            4.9747     3.8882     0.9670 O.2     
  27 C27            1.7463     0.3656     1.6683 C.2     
  28 O28            2.0068    -0.7881     1.4216 O.2     
  29 O29            1.5327     0.7490     2.9368 O.3     
  30 C30            1.6312    -0.2759     3.9606 C.3     
  31 H31           -1.6303     2.3821     0.8126 H       
  32 H32           -0.1586    -0.2960     1.1131 H       
  33 H33           -1.7865     0.0796     1.7274 H       
  34 H34           -1.8084    -1.3484    -0.3877 H       
  35 H35           -2.6597     0.2151    -0.5937 H       
  36 H36           -0.9272    -0.2564    -2.4542 H       
  37 H37           -0.6126     1.2505    -1.5520 H       
  38 H38            0.5720    -0.9612    -0.1439 H       
  39 H39            1.0808    -1.0361    -1.8375 H       
  40 H40            2.7092     0.2586    -0.9135 H       
  41 H41            1.6001     1.4627    -1.5645 H       
  42 H42            0.2051     5.4973     0.0893 H       
  43 H43           -1.1221     4.3112     0.0901 H       
  44 H44            0.1999     5.2912     2.7247 H       
  45 H45           -3.1731     3.8215     1.3115 H       
  46 H46           -3.8151     5.4410     1.6764 H       
  47 H47           -2.5908     5.2356     0.4008 H       
  48 H48           -3.0796     4.7747     4.0972 H       
  49 H49           -1.3582     5.0313     4.4705 H       
  50 H50           -1.5608     7.4026     3.7746 H       
  51 H51           -3.2822     7.1460     3.4013 H       
  52 H52           -3.6163     6.5491     5.9430 H       
  53 H53           -1.3724     9.2963     4.6807 H       
  54 H54           -0.5497     9.4078     6.2552 H       
  55 H55           -0.2357     8.0220     5.1831 H       
  56 H56           -1.9045     7.5522     8.2550 H       
  57 H57           -2.2362     9.2585     7.8718 H       
  58 H58           -3.5416     8.0530     7.7679 H       
  59 H59            3.4390     2.3556    -0.2353 H       
  60 H60            2.9748     2.4577     2.7844 H       
  61 H61            3.9422     1.1959     1.9841 H       
  62 H62            6.4000     3.7645     2.8847 H       
  63 H63            2.6328    -0.7058     3.9493 H       
  64 H64            1.4368     0.1666     4.9376 H       
  65 H65            0.8979    -1.0579     3.7636 H       
@<TRIPOS>BOND
   1    1    2 1
   2    1    8 2
   3    1   31 1
   4    2    3 1
   5    2   32 1
   6    2   33 1
   7    3    4 1
   8    3   34 1
   9    3   35 1
  10    4    5 1
  11    4   36 1
  12    4   37 1
  13    5    6 1
  14    5   38 1
  15    5   39 1
  16    6    7 1
  17    6   40 1
  18    6   41 1
  19    7    8 1
  20    7   27 1
  21    7   20 1
  22    8    9 1
  23    9   10 1
  24    9   21 am
  25   10   11 1
  26   10   42 1
  27   10   43 1
  28   11   12 2
  29   11   44 1
  30   12   13 1
  31   12   14 1
  32   13   45 1
  33   13   46 1
  34   13   47 1
  35   14   15 1
  36   14   48 1
  37   14   49 1
  38   15   16 1
  39   15   50 1
  40   15   51 1
  41   16   17 2
  42   16   52 1
  43   17   18 1
  44   17   19 1
  45   18   53 1
  46   18   54 1
  47   18   55 1
  48   19   56 1
  49   19   57 1
  50   19   58 1
  51   20   21 1
  52   20   23 1
  53   20   59 1
  54   21   22 2
  55   23   24 1
  56   23   60 1
  57   23   61 1
  58   24   25 1
  59   24   26 2
  60   25   62 1
  61   27   28 2
  62   27   29 1
  63   29   30 1
  64   30   63 1
  65   30   64 1
  66   30   65 1

#	End of record

