#	Name: ASD01000024
#	Creating user name:	WinNT
#	Creation time:	15. 06. 2019 18:54

#	Modifying user name:	WinNT
#	Modification time:	15. 06. 2019 18:54

#	Program:	/corina/corina34_cracker 3.40 0067  02.08.2006

@<TRIPOS>MOLECULE
ASD01000024
  45   46    0    0    0
SMALL
NO_CHARGES


@<TRIPOS>ATOM
   1 C1            -0.7192     1.6852    -0.2387 C.ar    
   2 C2            -0.5205     0.3229    -0.0686 C.ar    
   3 C3            -1.5924    -0.5454    -0.1461 C.ar    
   4 C4            -2.8622    -0.0576    -0.3929 C.ar    
   5 C5            -3.0629     1.3000    -0.5632 C.ar    
   6 C6            -1.9955     2.1728    -0.4805 C.ar    
   7 C7            -1.3771    -2.0255     0.0380 C.3     
   8 N8            -2.4988    -2.5519     0.8338 N.am    
   9 C9            -1.1585    -2.6396    -1.3299 C.2     
  10 C10           -2.0018    -3.6199    -1.7210 C.2     
  11 N11           -3.0155    -4.0418    -0.9107 N.am    
  12 C12           -3.2541    -3.5352     0.3055 C.2     
  13 C13           -0.1078    -2.2011    -2.1688 C.2     
  14 O14            0.7963    -1.3112    -1.7087 O.3     
  15 S15           -4.5612    -4.1572     1.2197 S.2     
  16 O16           -0.0190    -2.6262    -3.3055 O.2     
  17 O17            0.3335     2.5413    -0.1630 O.3     
  18 C18            1.8308    -0.9122    -2.6103 C.3     
  19 C19            2.7526     0.0926    -1.9164 C.3     
  20 C20           -1.8203    -4.2576    -3.0743 C.3     
  21 C21           -4.1476    -7.5811    -1.6571 C.3     
  22 C22           -3.2321    -6.4664    -1.1471 C.3     
  23 C23           -3.8921    -5.1092    -1.3990 C.3     
  24 H24            0.4714    -0.0587     0.1238 H       
  25 H25           -3.6988    -0.7379    -0.4531 H       
  26 H26           -4.0557     1.6786    -0.7566 H       
  27 H27           -2.1528     3.2330    -0.6132 H       
  28 H28           -0.4628    -2.1598     0.6161 H       
  29 H29           -2.6893    -2.1996     1.7173 H       
  30 H30            0.7728     2.7003    -1.0096 H       
  31 H31            2.4076    -1.7868    -2.9113 H       
  32 H32            1.3863    -0.4493    -3.4913 H       
  33 H33            2.1758     0.9671    -1.6154 H       
  34 H34            3.1971    -0.3704    -1.0353 H       
  35 H35            3.5416     0.3969    -2.6041 H       
  36 H36           -0.8047    -4.6438    -3.1607 H       
  37 H37           -2.5312    -5.0760    -3.1886 H       
  38 H38           -1.9938    -3.5143    -3.8524 H       
  39 H39           -5.1011    -7.5375    -1.1308 H       
  40 H40           -4.3164    -7.4521    -2.7262 H       
  41 H41           -3.6775    -8.5480    -1.4776 H       
  42 H42           -3.0633    -6.5954    -0.0780 H       
  43 H43           -2.2786    -6.5100    -1.6734 H       
  44 H44           -4.8456    -5.0656    -0.8727 H       
  45 H45           -4.0609    -4.9801    -2.4681 H       
@<TRIPOS>BOND
   1    1    2 ar
   2    1   17 1
   3    1    6 ar
   4    2    3 ar
   5    2   24 1
   6    3    4 ar
   7    3    7 1
   8    4    5 ar
   9    4   25 1
  10    5    6 ar
  11    5   26 1
  12    6   27 1
  13    7    8 1
  14    7    9 1
  15    7   28 1
  16    8   12 am
  17    8   29 1
  18    9   10 2
  19    9   13 1
  20   10   20 1
  21   10   11 1
  22   11   23 1
  23   11   12 am
  24   12   15 2
  25   13   14 1
  26   13   16 2
  27   14   18 1
  28   17   30 1
  29   18   19 1
  30   18   31 1
  31   18   32 1
  32   19   33 1
  33   19   34 1
  34   19   35 1
  35   20   36 1
  36   20   37 1
  37   20   38 1
  38   21   22 1
  39   21   39 1
  40   21   40 1
  41   21   41 1
  42   22   23 1
  43   22   42 1
  44   22   43 1
  45   23   44 1
  46   23   45 1

#	End of record

