#	Name: ASD02570002
#	Creating user name:	WinNT
#	Creation time:	15. 06. 2019 20:25

#	Modifying user name:	WinNT
#	Modification time:	15. 06. 2019 20:25

#	Program:	/corina/corina34_cracker 3.40 0067  02.08.2006

@<TRIPOS>MOLECULE
ASD02570002
  27   29    0    0    0
SMALL
NO_CHARGES


@<TRIPOS>ATOM
   1 C1            -0.0167     1.3769     0.0096 C.ar    
   2 C2             0.0021    -0.0041     0.0020 C.ar    
   3 C3             1.2017    -0.6924    -0.0180 C.ar    
   4 C4             2.4063    -0.0108    -0.0319 C.ar    
   5 C5             2.3933     1.3838    -0.0143 C.ar    
   6 C6             1.1783     2.0812     0.0020 C.ar    
   7 C7             3.6824    -0.7951    -0.0806 C.3     
   8 C8             4.8908    -0.0108     0.3321 C.ar    
   9 C9             4.8939     1.3835     0.3661 C.ar    
  10 C10            3.6703     2.1261     0.0009 C.2     
  11 C11            6.0413    -0.6924     0.6893 C.ar    
  12 C12            7.1797    -0.0044     1.0689 C.ar    
  13 C13            7.1899     1.3764     1.0992 C.ar    
  14 C14            6.0477     2.0806     0.7478 C.ar    
  15 O15            3.7128     3.3093    -0.2777 O.2     
  16 O16            1.1706     3.4376     0.0102 O.3     
  17 O17            6.0476     3.4368     0.7745 O.3     
  18 H18            3.5858    -1.6580     0.5783 H       
  19 H19            3.8315    -1.1539    -1.0990 H       
  20 H20           -0.9580     1.9063     0.0169 H       
  21 H21           -0.9287    -0.5517     0.0122 H       
  22 H22            1.1984    -1.7724    -0.0225 H       
  23 H23            6.0502    -1.7722     0.6717 H       
  24 H24            8.0688    -0.5520     1.3445 H       
  25 H25            8.0835     1.9057     1.3952 H       
  26 H26            1.1595     3.8362    -0.8708 H       
  27 H27            6.3166     3.8466    -0.0590 H       
@<TRIPOS>BOND
   1    1    2 ar
   2    1    6 ar
   3    1   20 1
   4    2    3 ar
   5    2   21 1
   6    3    4 ar
   7    3   22 1
   8    4    5 ar
   9    4    7 1
  10    5    6 ar
  11    5   10 1
  12    6   16 1
  13    7    8 1
  14    7   18 1
  15    7   19 1
  16    8    9 ar
  17    8   11 ar
  18    9   10 1
  19    9   14 ar
  20   10   15 2
  21   11   12 ar
  22   11   23 1
  23   12   13 ar
  24   12   24 1
  25   13   14 ar
  26   13   25 1
  27   14   17 1
  28   16   26 1
  29   17   27 1

#	End of record

