#	Name: ASD01885860
#	Creating user name:	WinNT
#	Creation time:	15. 06. 2019 19:50

#	Modifying user name:	WinNT
#	Modification time:	15. 06. 2019 19:50

#	Program:	/corina/corina34_cracker 3.40 0067  02.08.2006

@<TRIPOS>MOLECULE
ASD01885860
  49   52    0    0    0
SMALL
NO_CHARGES


@<TRIPOS>ATOM
   1 C1            -0.0170     1.4035     0.0098 C.ar    
   2 C2             1.2135     2.1078     0.0018 C.ar    
   3 C3             1.1956     3.5255     0.0097 C.ar    
   4 C4            -0.0394     4.1598     0.0249 C.ar    
   5 C5            -1.2085     3.3917     0.0319 C.ar    
   6 N6            -1.1706     2.0724     0.0299 N.ar    
   7 C7             0.0021    -0.0041     0.0020 C.ar    
   8 C8             1.1926    -0.6630    -0.0129 C.ar    
   9 C9             2.3992     0.0333    -0.0203 C.ar    
  10 C10            2.4198     1.3961    -0.0132 C.ar    
  11 C11            2.4545     4.3052     0.0024 C.2     
  12 C12           -2.5234     4.0771     0.0481 C.2     
  13 N13           -3.6605     3.3535     0.0551 N.am    
  14 O14           -2.5758     5.2909     0.0552 O.2     
  15 C15            1.2060    -2.1699    -0.0211 C.3     
  16 C16            1.1968    -2.6646    -1.4446 C.ar    
  17 C17            2.3835    -2.8869    -2.1264 C.ar    
  18 C18            2.3358    -3.3412    -3.4307 C.ar    
  19 N19            1.1802    -3.5623    -4.0262 N.ar    
  20 C20            0.0324    -3.3618    -3.4088 C.ar    
  21 C21            0.0016    -2.9138    -2.1017 C.ar    
  22 C22            3.5566     4.1181     0.8620 C.2     
  23 N23            4.4707     4.9956     0.5454 N.2     
  24 N24            3.9951     5.7715    -0.5184 N.pl3   
  25 C25            2.7634     5.3343    -0.8428 C.2     
  26 C26            4.7161     6.8675    -1.1706 C.3     
  27 C27           -1.2607    -3.6295    -4.1350 C.3     
  28 C28            3.6194    -3.5863    -4.1814 C.3     
  29 H29           -0.0970     5.2382     0.0317 H       
  30 H30           -0.9245    -0.5588     0.0083 H       
  31 H31            3.3302    -0.5138    -0.0315 H       
  32 H32            3.3617     1.9246    -0.0197 H       
  33 H33           -3.6186     2.3844     0.0494 H       
  34 H34           -4.5206     3.8017     0.0657 H       
  35 H35            2.1040    -2.5280     0.4822 H       
  36 H36            0.3242    -2.5440     0.4992 H       
  37 H37            3.3330    -2.7070    -1.6443 H       
  38 H38           -0.9416    -2.7518    -1.6013 H       
  39 H39            3.6316     3.3787     1.6457 H       
  40 H40            2.1317     5.7290    -1.6248 H       
  41 H41            5.3025     6.4734    -2.0006 H       
  42 H42            4.0014     7.5998    -1.5461 H       
  43 H43            5.3807     7.3445    -0.4504 H       
  44 H44           -1.5607    -4.6648    -3.9731 H       
  45 H45           -2.0353    -2.9632    -3.7554 H       
  46 H46           -1.1213    -3.4542    -5.2017 H       
  47 H47            3.9410    -4.6159    -4.0248 H       
  48 H48            3.4566    -3.4143    -5.2454 H       
  49 H49            4.3890    -2.9058    -3.8170 H       
@<TRIPOS>BOND
   1    1    7 ar
   2    1    2 ar
   3    1    6 ar
   4    2    3 ar
   5    2   10 ar
   6    3    4 ar
   7    3   11 1
   8    4    5 ar
   9    4   29 1
  10    5    6 ar
  11    5   12 1
  12    7    8 ar
  13    7   30 1
  14    8    9 ar
  15    8   15 1
  16    9   10 ar
  17    9   31 1
  18   10   32 1
  19   11   22 1
  20   11   25 2
  21   12   13 am
  22   12   14 2
  23   13   33 1
  24   13   34 1
  25   15   16 1
  26   15   35 1
  27   15   36 1
  28   16   17 ar
  29   16   21 ar
  30   17   18 ar
  31   17   37 1
  32   18   19 ar
  33   18   28 1
  34   19   20 ar
  35   20   21 ar
  36   20   27 1
  37   21   38 1
  38   22   23 2
  39   22   39 1
  40   23   24 1
  41   24   25 1
  42   24   26 1
  43   25   40 1
  44   26   41 1
  45   26   42 1
  46   26   43 1
  47   27   44 1
  48   27   45 1
  49   27   46 1
  50   28   47 1
  51   28   48 1
  52   28   49 1

#	End of record

