#	Name: ASD07300163
#	Creating user name:	WinNT
#	Creation time:	15. 06. 2019 21:09

#	Modifying user name:	WinNT
#	Modification time:	15. 06. 2019 21:09

#	Program:	/corina/corina34_cracker 3.40 0067  02.08.2006

@<TRIPOS>MOLECULE
ASD07300163
  47   51    0    0    0
SMALL
NO_CHARGES


@<TRIPOS>ATOM
   1 C1             0.6288     1.7143     0.4422 C.ar    
   2 C2             0.7225     0.3207     0.5077 C.ar    
   3 C3             1.9729    -0.2786     0.4807 C.ar    
   4 C4             3.0903     0.5386     0.3888 C.ar    
   5 C5             2.9237     1.9093     0.3278 C.ar    
   6 N6             1.7224     2.4532     0.3550 N.ar    
   7 C7            -1.4237     0.8775     0.5873 C.2     
   8 N8            -0.7256     2.0245     0.4945 N.am    
   9 N9            -0.5772    -0.1699     0.5920 N.am    
  10 O10           -2.6362     0.7986     0.6520 O.2     
  11 C11           -1.2715     3.3137     0.4569 C.ar    
  12 C12           -2.6490     3.4855     0.5174 C.ar    
  13 C13           -3.1890     4.7535     0.4806 C.ar    
  14 C14           -2.3515     5.8640     0.3826 C.ar    
  15 C15           -0.9695     5.6888     0.3221 C.ar    
  16 C16           -0.4344     4.4189     0.3650 C.ar    
  17 C17           -1.9871     9.1399    -2.5497 C.2     
  18 N18           -2.7543     9.9646    -1.8984 N.2     
  19 C19           -3.1966     9.3723    -0.7591 C.ar    
  20 C20           -2.6450     8.0821    -0.7285 C.ar    
  21 N21           -1.8854     7.9642    -1.8732 N.pl3   
  22 C22           -4.0272     9.7924     0.2843 C.ar    
  23 C23           -4.2997     8.9425     1.3332 C.ar    
  24 C24           -3.7583     7.6682     1.3689 C.ar    
  25 C25           -2.9295     7.2287     0.3424 C.ar    
  26 C26           -1.1122     6.7898    -2.2848 C.3     
  27 C27           -0.9582    -1.5818     0.6795 C.3     
  28 C28           -1.0244    -2.0020     2.1491 C.3     
  29 H29            2.0741    -1.3527     0.5302 H       
  30 H30            4.0805     0.1079     0.3656 H       
  31 H31            3.7928     2.5464     0.2563 H       
  32 H32           -3.2973     2.6250     0.5929 H       
  33 H33           -4.2598     4.8865     0.5272 H       
  34 H34           -0.3187     6.5473     0.2462 H       
  35 H35            0.6362     4.2829     0.3230 H       
  36 H36           -1.5053     9.3556    -3.4919 H       
  37 H37           -4.4553    10.7837     0.2676 H       
  38 H38           -4.9415     9.2733     2.1363 H       
  39 H39           -3.9805     7.0128     2.1981 H       
  40 H40           -0.1352     6.8106    -1.8021 H       
  41 H41           -1.6432     5.8842    -1.9916 H       
  42 H42           -0.9830     6.8010    -3.3671 H       
  43 H43           -1.9348    -1.7239     0.2166 H       
  44 H44           -0.2180    -2.1907     0.1604 H       
  45 H45           -1.7647    -1.3931     2.6681 H       
  46 H46           -1.3080    -3.0525     2.2142 H       
  47 H47           -0.0479    -1.8599     2.6120 H       
@<TRIPOS>BOND
   1    1    2 ar
   2    1    6 ar
   3    1    8 1
   4    2    3 ar
   5    2    9 1
   6    3    4 ar
   7    3   29 1
   8    4    5 ar
   9    4   30 1
  10    5    6 ar
  11    5   31 1
  12    7    8 am
  13    7    9 am
  14    7   10 2
  15    8   11 1
  16    9   27 1
  17   11   12 ar
  18   11   16 ar
  19   12   13 ar
  20   12   32 1
  21   13   14 ar
  22   13   33 1
  23   14   15 ar
  24   14   25 1
  25   15   16 ar
  26   15   34 1
  27   16   35 1
  28   17   18 2
  29   17   21 1
  30   17   36 1
  31   18   19 1
  32   19   20 ar
  33   19   22 ar
  34   20   21 1
  35   20   25 ar
  36   21   26 1
  37   22   23 ar
  38   22   37 1
  39   23   24 ar
  40   23   38 1
  41   24   25 ar
  42   24   39 1
  43   26   40 1
  44   26   41 1
  45   26   42 1
  46   27   28 1
  47   27   43 1
  48   27   44 1
  49   28   45 1
  50   28   46 1
  51   28   47 1

#	End of record

