#	Name: ASD03331641
#	Creating user name:	WinNT
#	Creation time:	15. 06. 2019 20:39

#	Modifying user name:	WinNT
#	Modification time:	15. 06. 2019 20:39

#	Program:	/corina/corina34_cracker 3.40 0067  02.08.2006

@<TRIPOS>MOLECULE
ASD03331641
  61   65    0    0    0
SMALL
NO_CHARGES


@<TRIPOS>ATOM
   1 C1             0.2748     1.1903     1.2419 C.ar    
   2 C2             0.2057    -0.1234     0.8766 C.ar    
   3 C3             1.2451    -0.7167     0.1689 C.ar    
   4 C4             2.3629     0.0091    -0.1761 C.ar    
   5 C5             1.4022     1.9497     0.9018 C.ar    
   6 C6             1.7695     3.2985     1.1260 C.2     
   7 C7             2.4563     1.3504     0.1852 C.ar    
   8 N8             3.4196     2.3124    -0.0100 N.pl3   
   9 C9             2.9920     3.4932     0.5653 C.2     
  10 C10            0.9512     4.3329     1.8550 C.3     
  11 Cl11          -1.1922    -1.0616     1.3001 Cl      
  12 C12            3.7402     4.7587     0.5705 C.2     
  13 N13            4.9492     4.8292    -0.0211 N.am    
  14 O14            3.2681     5.7423     1.1089 O.2     
  15 C15            7.6257     9.7925    -0.3976 C.ar    
  16 C16            9.6671    11.0560    -0.4029 C.ar    
  17 C17            9.0158     9.8448    -0.3056 C.ar    
  18 C18            6.8972    10.9659    -0.5879 C.ar    
  19 C19            7.5525    12.1749    -0.6847 C.ar    
  20 C20            8.9387    12.2246    -0.5931 C.ar    
  21 N21            9.6001    13.4501    -0.6905 N.3     
  22 C22           10.6065    13.4215    -1.7595 C.3     
  23 C23            8.6461    14.5488    -0.8886 C.3     
  24 C24            9.3895    15.8858    -0.8451 C.3     
  25 C25           10.4563    15.9070    -1.9433 C.3     
  26 C26           11.4084    14.7248    -1.7420 C.3     
  27 C27            1.3032     4.3052     3.3437 C.3     
  28 C28            7.6518     7.3165    -0.1090 C.ar    
  29 C29            6.9968     6.1069    -0.0179 C.ar    
  30 C30            5.6111     6.0567    -0.1142 C.ar    
  31 C31            4.8827     7.2252    -0.3035 C.ar    
  32 C32            5.5335     8.4371    -0.3961 C.ar    
  33 C33            6.9233     8.4899    -0.2993 C.ar    
  34 H34           -0.5392     1.6442     1.7876 H       
  35 H35            1.1750    -1.7570    -0.1126 H       
  36 H36            3.1653    -0.4608    -0.7253 H       
  37 H37            4.2610     2.1830    -0.4751 H       
  38 H38            1.1687     5.3207     1.4486 H       
  39 H39           -0.1088     4.1131     1.7281 H       
  40 H40            5.3599     4.0281    -0.3822 H       
  41 H41           10.7439    11.0969    -0.3317 H       
  42 H42            9.5821     8.9371    -0.1578 H       
  43 H43            5.8202    10.9276    -0.6599 H       
  44 H44            6.9885    13.0841    -0.8321 H       
  45 H45           11.2797    12.5788    -1.6021 H       
  46 H46           10.1093    13.3139    -2.7235 H       
  47 H47            8.1582    14.4359    -1.8567 H       
  48 H48            7.8954    14.5248    -0.0987 H       
  49 H49            8.6836    16.7002    -1.0077 H       
  50 H50            9.8663    16.0055     0.1278 H       
  51 H51            9.9766    15.8263    -2.9187 H       
  52 H52           11.0172    16.8400    -1.8883 H       
  53 H53           11.9170    14.8264    -0.7833 H       
  54 H54           12.1449    14.7098    -2.5455 H       
  55 H55            0.7113     5.0534     3.8710 H       
  56 H56            1.0858     3.3175     3.7501 H       
  57 H57            2.3632     4.5250     3.4706 H       
  58 H58            8.7282     7.3556    -0.0297 H       
  59 H59            7.5607     5.1976     0.1292 H       
  60 H60            3.8061     7.1838    -0.3784 H       
  61 H61            4.9672     9.3447    -0.5439 H       
@<TRIPOS>BOND
   1    1    2 ar
   2    1    5 ar
   3    1   34 1
   4    2    3 ar
   5    2   11 1
   6    3    4 ar
   7    3   35 1
   8    4    7 ar
   9    4   36 1
  10    5    7 ar
  11    5    6 1
  12    6    9 2
  13    6   10 1
  14    7    8 1
  15    8    9 1
  16    8   37 1
  17    9   12 1
  18   10   27 1
  19   10   38 1
  20   10   39 1
  21   12   13 am
  22   12   14 2
  23   13   30 1
  24   13   40 1
  25   15   18 ar
  26   15   17 ar
  27   15   33 1
  28   16   17 ar
  29   16   20 ar
  30   16   41 1
  31   17   42 1
  32   18   19 ar
  33   18   43 1
  34   19   20 ar
  35   19   44 1
  36   20   21 1
  37   21   23 1
  38   21   22 1
  39   22   26 1
  40   22   45 1
  41   22   46 1
  42   23   24 1
  43   23   47 1
  44   23   48 1
  45   24   25 1
  46   24   49 1
  47   24   50 1
  48   25   26 1
  49   25   51 1
  50   25   52 1
  51   26   53 1
  52   26   54 1
  53   27   55 1
  54   27   56 1
  55   27   57 1
  56   28   29 ar
  57   28   33 ar
  58   28   58 1
  59   29   30 ar
  60   29   59 1
  61   30   31 ar
  62   31   32 ar
  63   31   60 1
  64   32   33 ar
  65   32   61 1

#	End of record

