#	Name: ASD03091241
#	Creating user name:	WinNT
#	Creation time:	15. 06. 2019 20:30

#	Modifying user name:	WinNT
#	Modification time:	15. 06. 2019 20:30

#	Program:	/corina/corina34_cracker 3.40 0067  02.08.2006

@<TRIPOS>MOLECULE
ASD03091241
  52   56    0    0    0
SMALL
NO_CHARGES


@<TRIPOS>ATOM
   1 C1            -2.2817     3.8026     1.3684 C.1     
   2 C2            -1.1481     3.3258     0.6348 C.ar    
   3 C3             0.0473     4.0427     0.6521 C.ar    
   4 C4             1.1452     3.5713    -0.0641 C.ar    
   5 C5             1.0419     2.3847    -0.7942 C.ar    
   6 C6            -0.1448     1.6794    -0.8072 C.ar    
   7 C7            -1.2357     2.1379    -0.0954 C.ar    
   8 N8            -3.1810     4.1809     1.9504 N.1     
   9 N9             3.5353     3.6587     0.0678 N.2     
  10 C10            2.4168     4.3252    -0.0519 C.2     
  11 N11            2.3680     5.6883    -0.1669 N.am    
  12 C12            3.5084     6.4172    -0.1607 C.2     
  13 C13            4.7787     5.6884    -0.0271 C.ar    
  14 C14            6.0052     6.3485    -0.0099 C.ar    
  15 C15            7.1708     5.6120     0.1188 C.ar    
  16 C16            7.1194     4.2224     0.2301 C.ar    
  17 C17            5.9249     3.5617     0.2148 C.ar    
  18 C18            4.7321     4.2800     0.0860 C.ar    
  19 O19            3.4836     7.6300    -0.2624 O.2     
  20 C20            1.0738     6.3622    -0.2979 C.3     
  21 N21           10.3997     8.2972     0.9529 N.3     
  22 C22            9.5715     8.4226    -0.2562 C.3     
  23 C23            8.2416     7.7083    -0.0729 C.3     
  24 N24            8.4063     6.2649     0.1367 N.3     
  25 C25            9.1226     6.0023     1.3928 C.3     
  26 C26           10.6128     5.8436     1.1309 C.3     
  27 C27           11.3117     7.1520     0.8208 C.3     
  28 C28            9.6945     8.3130     2.2166 C.3     
  29 C29            8.7968     7.0989     2.3902 C.3     
  30 H30            0.1217     4.9597     1.2179 H       
  31 H31            1.8923     2.0184    -1.3501 H       
  32 H32           -0.2192     0.7629    -1.3736 H       
  33 H33           -2.1599     1.5792    -0.1065 H       
  34 H34            6.0467     7.4242    -0.0963 H       
  35 H35            8.0370     3.6616     0.3295 H       
  36 H36            5.9012     2.4854     0.3017 H       
  37 H37            0.6590     6.5479     0.6929 H       
  38 H38            1.2088     7.3101    -0.8188 H       
  39 H39            0.3907     5.7300    -0.8651 H       
  40 H40            9.3876     9.4779    -0.4575 H       
  41 H41           10.1015     7.9835    -1.1015 H       
  42 H42            7.7281     8.1339     0.7892 H       
  43 H43            7.6295     7.8685    -0.9605 H       
  44 H44            8.7494     5.0643     1.8039 H       
  45 H45           11.0770     5.3996     2.0114 H       
  46 H46           10.7493     5.1662     0.2879 H       
  47 H47           11.6947     7.1179    -0.1991 H       
  48 H48           12.1470     7.2810     1.5091 H       
  49 H49           10.4226     8.3331     3.0275 H       
  50 H50            9.0840     9.2144     2.2695 H       
  51 H51            7.7589     7.4035     2.2554 H       
  52 H52            8.9212     6.7078     3.4000 H       
@<TRIPOS>BOND
   1    1    2 1
   2    1    8 3
   3    2    3 ar
   4    2    7 ar
   5    3    4 ar
   6    3   30 1
   7    4    5 ar
   8    4   10 1
   9    5    6 ar
  10    5   31 1
  11    6    7 ar
  12    6   32 1
  13    7   33 1
  14    9   10 2
  15    9   18 1
  16   10   11 1
  17   11   12 am
  18   11   20 1
  19   12   13 1
  20   12   19 2
  21   13   14 ar
  22   13   18 ar
  23   14   15 ar
  24   14   34 1
  25   15   16 ar
  26   15   24 1
  27   16   17 ar
  28   16   35 1
  29   17   18 ar
  30   17   36 1
  31   20   37 1
  32   20   38 1
  33   20   39 1
  34   21   22 1
  35   21   27 1
  36   21   28 1
  37   22   23 1
  38   22   40 1
  39   22   41 1
  40   23   24 1
  41   23   42 1
  42   23   43 1
  43   24   25 1
  44   25   26 1
  45   25   29 1
  46   25   44 1
  47   26   27 1
  48   26   45 1
  49   26   46 1
  50   27   47 1
  51   27   48 1
  52   28   29 1
  53   28   49 1
  54   28   50 1
  55   29   51 1
  56   29   52 1

#	End of record

