#	Name: ASD01150564
#	Creating user name:	WinNT
#	Creation time:	15. 06. 2019 19:04

#	Modifying user name:	WinNT
#	Modification time:	15. 06. 2019 19:04

#	Program:	/corina/corina34_cracker 3.40 0067  02.08.2006

@<TRIPOS>MOLECULE
ASD01150564
  48   51    0    0    0
SMALL
NO_CHARGES


@<TRIPOS>ATOM
   1 C1             0.4933     1.3919    -0.9465 C.ar    
   2 C2             0.4639     0.0109    -0.9224 C.ar    
   3 C3             1.9479     0.0102     0.9677 C.ar    
   4 C4             1.9789     1.3967     0.9445 C.ar    
   5 C5             1.2508     2.0887    -0.0133 C.ar    
   6 N6             1.2801     3.4880    -0.0393 N.am    
   7 C7             0.1264     4.1736    -0.1219 C.2     
   8 N8             0.1176     5.5193    -0.1491 N.am    
   9 C9             1.2789     6.2039    -0.0937 C.2     
  10 C10            2.5443     5.4601    -0.0033 C.2     
  11 N11            2.5098     4.1538     0.0267 N.2     
  12 O12            1.2793     7.4207    -0.1187 O.2     
  13 C13           -1.1539     6.2413    -0.2394 C.3     
  14 O14           -0.9269     3.5677    -0.1732 O.2     
  15 C15           -1.6747     6.5170     1.1476 C.ar    
  16 O16            3.7301     6.1204     0.0540 O.3     
  17 C17            4.9130     5.3233     0.1405 C.3     
  18 C18            1.1879    -0.6824     0.0311 C.ar    
  19 C19           -1.3202     7.6899     1.7980 C.ar    
  20 C20           -1.7871     7.9596     3.0668 C.ar    
  21 C21           -2.6213     7.0519     3.7063 C.ar    
  22 C22           -2.9800     5.8641     3.0469 C.ar    
  23 C23           -2.5053     5.6058     1.7621 C.ar    
  24 F24            1.1564    -2.0329     0.0527 F       
  25 N25            2.6816    -0.6914     1.9324 N.am    
  26 C26            2.9446    -0.1216     3.1251 C.2     
  27 C27            3.6402    -0.9140     4.2018 C.3     
  28 O28            2.6215     1.0291     3.3319 O.2     
  29 O29           -3.2218     7.0363     4.9135 O.3     
  30 C30           -3.9448     5.9144     5.0750 C.2     
  31 C31           -3.8518     5.1439     3.9827 C.2     
  32 H32           -0.0696     1.9303    -1.6946 H       
  33 H33           -0.1257    -0.5285    -1.6489 H       
  34 H34            2.5683     1.9368     1.6707 H       
  35 H35           -0.9998     7.1844    -0.7638 H       
  36 H36           -1.8774     5.6359    -0.7855 H       
  37 H37            5.7871     5.9733     0.1795 H       
  38 H38            4.8742     4.7122     1.0423 H       
  39 H39            4.9800     4.6764    -0.7342 H       
  40 H40           -0.6714     8.3990     1.3054 H       
  41 H41           -1.5040     8.8760     3.5633 H       
  42 H42           -2.7805     4.6931     1.2546 H       
  43 H43            3.0005    -1.5875     1.7421 H       
  44 H44            4.7185    -0.7858     4.1080 H       
  45 H45            3.3159    -0.5600     5.1804 H       
  46 H46            3.3892    -1.9694     4.0957 H       
  47 H47           -4.5171     5.6694     5.9575 H       
  48 H48           -4.3236     4.1855     3.8230 H       
@<TRIPOS>BOND
   1    1    2 ar
   2    1    5 ar
   3    1   32 1
   4    2   18 ar
   5    2   33 1
   6    3    4 ar
   7    3   25 1
   8    3   18 ar
   9    4    5 ar
  10    4   34 1
  11    5    6 1
  12    6    7 am
  13    6   11 1
  14    7    8 am
  15    7   14 2
  16    8    9 am
  17    8   13 1
  18    9   10 1
  19    9   12 2
  20   10   11 2
  21   10   16 1
  22   13   15 1
  23   13   35 1
  24   13   36 1
  25   15   19 ar
  26   15   23 ar
  27   16   17 1
  28   17   37 1
  29   17   38 1
  30   17   39 1
  31   18   24 1
  32   19   20 ar
  33   19   40 1
  34   20   21 ar
  35   20   41 1
  36   21   22 ar
  37   21   29 1
  38   22   23 ar
  39   22   31 1
  40   23   42 1
  41   25   26 am
  42   25   43 1
  43   26   27 1
  44   26   28 2
  45   27   44 1
  46   27   45 1
  47   27   46 1
  48   29   30 1
  49   30   31 2
  50   30   47 1
  51   31   48 1

#	End of record

