#	Name: ASD06660142
#	Creating user name:	WinNT
#	Creation time:	15. 06. 2019 21:08

#	Modifying user name:	WinNT
#	Modification time:	15. 06. 2019 21:08

#	Program:	/corina/corina34_cracker 3.40 0067  02.08.2006

@<TRIPOS>MOLECULE
ASD06660142
  84   87    0    0    0
SMALL
NO_CHARGES


@<TRIPOS>ATOM
   1 C1             0.0685     1.6584     0.9332 C.2     
   2 C2             0.0103     0.2631     0.3669 C.3     
   3 C3            -1.0695     0.1964    -0.7150 C.3     
   4 O4             1.0899     2.2994     0.8566 O.2     
   5 O5            -1.0160     2.1912     1.5178 O.3     
   6 C6            -1.2186    -1.2264    -1.1889 C.ar    
   7 C7            -2.0912    -2.0814    -0.5410 C.ar    
   8 C8            -2.2302    -3.3859    -0.9727 C.ar    
   9 C9            -1.4923    -3.8387    -2.0590 C.ar    
  10 C10           -0.6167    -2.9771    -2.7076 C.ar    
  11 C11           -0.4867    -1.6722    -2.2742 C.ar    
  12 N12           -1.6301    -5.1575    -2.4980 N.3     
  13 C13           -0.7622    -5.4212    -3.6528 C.3     
  14 C14           -1.0450    -6.8239    -4.1954 C.3     
  15 C15           -0.7859    -7.8542    -3.0927 C.3     
  16 C16           -1.6669    -7.5284    -1.8834 C.3     
  17 C17           -1.3660    -6.1053    -1.4079 C.3     
  18 C18           -1.1251    -9.2534    -3.6103 C.3     
  19 N19           -0.2846    -9.5618    -4.7750 N.3     
  20 C20           -0.8697   -10.2664    -2.5242 C.ar    
  21 C21           -1.8829   -11.1235    -2.1374 C.ar    
  22 C22           -1.6374   -12.0519    -1.1376 C.ar    
  23 C23           -0.3763   -12.0839    -0.5618 C.ar    
  24 C24            0.5869   -11.1955    -1.0004 C.ar    
  25 N25            0.3193   -10.3287    -1.9577 N.ar    
  26 N26            1.3089    -0.0813    -0.2174 N.am    
  27 C27            2.3347    -0.4356     0.5817 C.2     
  28 C28            3.6691    -0.6950     0.0004 C.ar    
  29 C29            4.0670    -2.0020    -0.2862 C.ar    
  30 C30            5.3131    -2.2370    -0.8289 C.ar    
  31 C31            6.1684    -1.1807    -1.0889 C.ar    
  32 C32            5.7805     0.1169    -0.8068 C.ar    
  33 C33            4.5343     0.3663    -0.2696 C.ar    
  34 O34            2.1628    -0.5419     1.7803 O.2     
  35 C35            4.1110     1.7810     0.0312 C.3     
  36 C36            3.1372    -3.1537    -0.0028 C.3     
  37 C37            2.2024    -3.3600    -1.1962 C.3     
  38 S38            7.7587    -1.4898    -1.7817 S.o2    
  39 O39            8.5731    -0.3805    -1.4276 O.2     
  40 O40            8.0868    -2.8321    -1.4502 O.2     
  41 N41            7.5936    -1.4419    -3.4287 N.am    
  42 C42            7.7675    -0.1763    -4.1458 C.3     
  43 C43            7.2737    -2.6651    -4.1688 C.3     
  44 H44           -0.2286    -0.4424     1.1627 H       
  45 H45           -2.0175     0.5437    -0.3040 H       
  46 H46           -0.7831     0.8307    -1.5539 H       
  47 H47           -0.9304     3.0892     1.8662 H       
  48 H48           -2.6643    -1.7289     0.3038 H       
  49 H49           -2.9116    -4.0533    -0.4660 H       
  50 H50           -0.0415    -3.3259    -3.5525 H       
  51 H51            0.1903    -1.0005    -2.7809 H       
  52 H52           -0.9595    -4.6841    -4.4312 H       
  53 H53            0.2814    -5.3542    -3.3455 H       
  54 H54           -2.0849    -6.8874    -4.5156 H       
  55 H55           -0.3897    -7.0253    -5.0428 H       
  56 H56            0.2633    -7.8178    -2.7993 H       
  57 H57           -2.7166    -7.6030    -2.1673 H       
  58 H58           -1.4559    -8.2331    -1.0791 H       
  59 H59           -0.3196    -6.0351    -1.1111 H       
  60 H60           -2.0019    -5.8651    -0.5558 H       
  61 H61           -2.1752    -9.2888    -3.9005 H       
  62 H62           -0.4839    -8.9356    -5.5406 H       
  63 H63            0.6943    -9.5354    -4.5316 H       
  64 H64           -2.8536   -11.0702    -2.6078 H       
  65 H65           -2.4100   -12.7339    -0.8147 H       
  66 H66           -0.1499   -12.7939     0.2199 H       
  67 H67            1.5715   -11.2139    -0.5570 H       
  68 H68            1.4303    -0.0544    -1.1794 H       
  69 H69            5.6221    -3.2478    -1.0511 H       
  70 H70            6.4528     0.9368    -1.0118 H       
  71 H71            4.4048     2.0396     1.0485 H       
  72 H72            4.5932     2.4616    -0.6704 H       
  73 H73            3.0286     1.8650    -0.0668 H       
  74 H74            3.7207    -4.0594     0.1626 H       
  75 H75            2.5474    -2.9339     0.8871 H       
  76 H76            2.7834    -3.6765    -2.0625 H       
  77 H77            1.4662    -4.1261    -0.9529 H       
  78 H78            1.6915    -2.4243    -1.4236 H       
  79 H79            8.8134    -0.0603    -4.4299 H       
  80 H80            7.1458    -0.1775    -5.0411 H       
  81 H81            7.4726     0.6508    -3.4999 H       
  82 H82            6.1916    -2.7705    -4.2460 H       
  83 H83            7.7055    -2.6087    -5.1680 H       
  84 H84            7.6860    -3.5262    -3.6429 H       
@<TRIPOS>BOND
   1    1    2 1
   2    1    4 2
   3    1    5 1
   4    2    3 1
   5    2   26 1
   6    2   44 1
   7    3    6 1
   8    3   45 1
   9    3   46 1
  10    5   47 1
  11    6    7 ar
  12    6   11 ar
  13    7    8 ar
  14    7   48 1
  15    8    9 ar
  16    8   49 1
  17    9   10 ar
  18    9   12 1
  19   10   11 ar
  20   10   50 1
  21   11   51 1
  22   12   13 1
  23   12   17 1
  24   13   14 1
  25   13   52 1
  26   13   53 1
  27   14   15 1
  28   14   54 1
  29   14   55 1
  30   15   16 1
  31   15   18 1
  32   15   56 1
  33   16   17 1
  34   16   57 1
  35   16   58 1
  36   17   59 1
  37   17   60 1
  38   18   19 1
  39   18   20 1
  40   18   61 1
  41   19   62 1
  42   19   63 1
  43   20   21 ar
  44   20   25 ar
  45   21   22 ar
  46   21   64 1
  47   22   23 ar
  48   22   65 1
  49   23   24 ar
  50   23   66 1
  51   24   25 ar
  52   24   67 1
  53   26   27 am
  54   26   68 1
  55   27   28 1
  56   27   34 2
  57   28   29 ar
  58   28   33 ar
  59   29   30 ar
  60   29   36 1
  61   30   31 ar
  62   30   69 1
  63   31   32 ar
  64   31   38 1
  65   32   33 ar
  66   32   70 1
  67   33   35 1
  68   35   71 1
  69   35   72 1
  70   35   73 1
  71   36   37 1
  72   36   74 1
  73   36   75 1
  74   37   76 1
  75   37   77 1
  76   37   78 1
  77   38   39 2
  78   38   40 2
  79   38   41 am
  80   41   42 1
  81   41   43 1
  82   42   79 1
  83   42   80 1
  84   42   81 1
  85   43   82 1
  86   43   83 1
  87   43   84 1

#	End of record

