#	Name: ASD02508326
#	Creating user name:	WinNT
#	Creation time:	15. 06. 2019 20:24

#	Modifying user name:	WinNT
#	Modification time:	15. 06. 2019 20:24

#	Program:	/corina/corina34_cracker 3.40 0067  02.08.2006

@<TRIPOS>MOLECULE
ASD02508326
  39   40    0    0    0
SMALL
NO_CHARGES


@<TRIPOS>ATOM
   1 C1            -0.0168     1.3847     0.0097 C.ar    
   2 C2             0.0021    -0.0041     0.0020 C.ar    
   3 C3             1.2163    -0.6791    -0.0132 C.ar    
   4 C4             2.3998     0.0321    -0.0207 C.ar    
   5 C5             2.3774     1.4150    -0.0126 C.ar    
   6 C6             1.1708     2.0900     0.0021 C.ar    
   7 S7             3.8901     2.3186    -0.0216 S.o2    
   8 O8             3.5988     3.5942     0.5329 O.2     
   9 O9             4.8805     1.4485     0.5086 O.2     
  10 C10            4.3220     2.5957    -1.7072 C.ar    
  11 C11            3.8776     3.7321    -2.3568 C.ar    
  12 C12            4.2165     3.9495    -3.6792 C.ar    
  13 C13            5.0002     3.0307    -4.3519 C.ar    
  14 C14            5.4454     1.8947    -3.7020 C.ar    
  15 C15            5.1101     1.6795    -2.3783 C.ar    
  16 N16           -1.1970    -0.7204     0.0101 N.am    
  17 C17           -1.8950    -0.9943    -1.2484 C.3     
  18 S18           -1.8295    -1.2600     1.4422 S.o2    
  19 C19           -2.8982     0.0939     2.0038 C.3     
  20 O20           -2.6081    -2.3913     1.0773 O.2     
  21 O21           -0.7013    -1.3917     2.2961 O.2     
  22 F22           -3.8933     0.3292     1.0490 F       
  23 F23           -3.4930    -0.2555     3.2209 F       
  24 C24            1.2416    -2.1859    -0.0210 C.3     
  25 F25           -2.1325     1.2523     2.1745 F       
  26 H26           -0.9589     1.9125     0.0170 H       
  27 H27            3.3440    -0.4920    -0.0325 H       
  28 H28            1.1569     3.1699     0.0088 H       
  29 H29            3.2653     4.4500    -1.8312 H       
  30 H30            3.8687     4.8370    -4.1869 H       
  31 H31            5.2643     3.2001    -5.3853 H       
  32 H32            6.0574     1.1767    -4.2277 H       
  33 H33            5.4579     0.7920    -1.8706 H       
  34 H34           -1.5441    -1.9407    -1.6600 H       
  35 H35           -2.9676    -1.0541    -1.0635 H       
  36 H36           -1.6928    -0.1922    -1.9582 H       
  37 H37            1.2377    -2.5440    -1.0505 H       
  38 H38            2.1425    -2.5367     0.4823 H       
  39 H39            0.3629    -2.5668     0.4995 H       
@<TRIPOS>BOND
   1    1    2 ar
   2    1    6 ar
   3    1   26 1
   4    2    3 ar
   5    2   16 1
   6    3    4 ar
   7    3   24 1
   8    4    5 ar
   9    4   27 1
  10    5    6 ar
  11    5    7 1
  12    6   28 1
  13    7    8 2
  14    7    9 2
  15    7   10 1
  16   10   11 ar
  17   10   15 ar
  18   11   12 ar
  19   11   29 1
  20   12   13 ar
  21   12   30 1
  22   13   14 ar
  23   13   31 1
  24   14   15 ar
  25   14   32 1
  26   15   33 1
  27   16   17 1
  28   16   18 am
  29   17   34 1
  30   17   35 1
  31   17   36 1
  32   18   19 1
  33   18   20 2
  34   18   21 2
  35   19   22 1
  36   19   25 1
  37   19   23 1
  38   24   37 1
  39   24   38 1
  40   24   39 1

#	End of record

