#	Name: ASD01209071
#	Creating user name:	WinNT
#	Creation time:	15. 06. 2019 19:10

#	Modifying user name:	WinNT
#	Modification time:	15. 06. 2019 19:10

#	Program:	/corina/corina34_cracker 3.40 0067  02.08.2006

@<TRIPOS>MOLECULE
ASD01209071
  51   52    0    0    0
SMALL
NO_CHARGES


@<TRIPOS>ATOM
   1 C1            -0.0169     1.4505    -0.1281 C.ar    
   2 C2             0.0567     0.0651    -0.1216 C.ar    
   3 C3            -1.0999    -0.6961    -0.0228 C.ar    
   4 C4            -2.3341    -0.0756     0.0697 C.ar    
   5 C5            -2.4139     1.3201     0.0640 C.ar    
   6 C6            -1.2455     2.0815    -0.0299 C.ar    
   7 O7             1.1194     2.1897    -0.2255 O.3     
   8 C8             0.9641     3.6047    -0.3509 C.3     
   9 C9             2.1925     4.1928    -1.0481 C.3     
  10 O10            3.3429     4.0107    -0.2203 O.3     
  11 C11           -3.7233     1.9854     0.1620 C.2     
  12 O12           -3.7900     3.1961     0.1568 O.2     
  13 C13           -4.9808     1.1619     0.2688 C.3     
  14 C14           -6.0712     1.9832     0.9596 C.3     
  15 C15           -5.4514     0.7655    -1.1321 C.3     
  16 O16           -1.0207    -2.0528    -0.0174 O.3     
  17 C17           -0.4353    -2.6533     1.0518 C.ar    
  18 C18           -0.2180    -4.0238     1.0463 C.ar    
  19 C19            0.3777    -4.6318     2.1342 C.ar    
  20 C20            0.7570    -3.8760     3.2282 C.ar    
  21 C21            0.5416    -2.5102     3.2363 C.ar    
  22 C22           -0.0486    -1.8964     2.1485 C.ar    
  23 S23            1.5156    -4.6548     4.6148 S.o2    
  24 O24            1.2066    -3.8017     5.7084 O.2     
  25 O25            1.0370    -5.9921     4.5709 O.2     
  26 C26            0.8200     4.2272     1.0393 C.3     
  27 C27            3.2914    -4.6020     4.2482 C.3     
  28 H28            1.0175    -0.4230    -0.1939 H       
  29 H29           -3.2335    -0.6687     0.1458 H       
  30 H30           -1.3016     3.1601    -0.0344 H       
  31 H31            0.0732     3.8217    -0.9402 H       
  32 H32            2.3466     3.6864    -2.0010 H       
  33 H33            2.0359     5.2572    -1.2235 H       
  34 H34            4.1603     4.3605    -0.6003 H       
  35 H35           -4.7784     0.2634     0.8518 H       
  36 H36           -6.2737     2.8817     0.3766 H       
  37 H37           -6.9808     1.3876     1.0369 H       
  38 H38           -5.7360     2.2656     1.9576 H       
  39 H39           -4.6745     0.1804    -1.6243 H       
  40 H40           -6.3609     0.1699    -1.0549 H       
  41 H41           -5.6538     1.6640    -1.7151 H       
  42 H42           -0.5147    -4.6146     0.1923 H       
  43 H43            0.5471    -5.6984     2.1305 H       
  44 H44            0.8388    -1.9221     4.0920 H       
  45 H45           -0.2163    -0.8295     2.1551 H       
  46 H46            1.7109     4.0102     1.6287 H       
  47 H47            0.7015     5.3065     0.9437 H       
  48 H48           -0.0551     3.8082     1.5361 H       
  49 H49            3.6092    -3.5650     4.1397 H       
  50 H50            3.8447    -5.0682     5.0634 H       
  51 H51            3.4872    -5.1409     3.3212 H       
@<TRIPOS>BOND
   1    1    2 ar
   2    1    7 1
   3    1    6 ar
   4    2    3 ar
   5    2   28 1
   6    3    4 ar
   7    3   16 1
   8    4    5 ar
   9    4   29 1
  10    5    6 ar
  11    5   11 1
  12    6   30 1
  13    7    8 1
  14    8    9 1
  15    8   26 1
  16    8   31 1
  17    9   10 1
  18    9   32 1
  19    9   33 1
  20   10   34 1
  21   11   12 2
  22   11   13 1
  23   13   14 1
  24   13   15 1
  25   13   35 1
  26   14   36 1
  27   14   37 1
  28   14   38 1
  29   15   39 1
  30   15   40 1
  31   15   41 1
  32   16   17 1
  33   17   18 ar
  34   17   22 ar
  35   18   19 ar
  36   18   42 1
  37   19   20 ar
  38   19   43 1
  39   20   21 ar
  40   20   23 1
  41   21   22 ar
  42   21   44 1
  43   22   45 1
  44   23   24 2
  45   23   25 2
  46   23   27 1
  47   26   46 1
  48   26   47 1
  49   26   48 1
  50   27   49 1
  51   27   50 1
  52   27   51 1

#	End of record

