#	Name: ASD00461011
#	Creating user name:	WinNT
#	Creation time:	15. 06. 2019 18:36

#	Modifying user name:	WinNT
#	Modification time:	15. 06. 2019 18:36

#	Program:	/corina/corina34_cracker 3.40 0067  02.08.2006

@<TRIPOS>MOLECULE
ASD00461011
  37   39    0    0    0
SMALL
NO_CHARGES


@<TRIPOS>ATOM
   1 C1             0.0215     1.4001    -0.1135 C.ar    
   2 C2             0.0306     0.0388    -0.0779 C.ar    
   3 C3             1.2089     2.1174    -0.1565 C.ar    
   4 C4             1.2506    -0.6673    -0.0841 C.ar    
   5 C5             2.4152     1.4544    -0.1640 C.ar    
   6 N6             1.4762    -1.9946    -0.0539 N.2     
   7 C7             2.4440     0.0619    -0.1275 C.ar    
   8 C8             2.6913    -2.3946    -0.0680 C.2     
   9 S9             3.7816    -1.0832    -0.1246 S.3     
  10 C10            3.1076    -3.8427    -0.0374 C.3     
  11 O11            2.6093    -4.4565     1.1529 O.3     
  12 C12            2.5366    -4.5634    -1.2603 C.3     
  13 C13            4.6117    -3.9335    -0.0577 C.ar    
  14 C14            5.2855    -4.4802     1.0181 C.ar    
  15 C15            6.6655    -4.5635     0.9996 C.ar    
  16 C16            7.3711    -4.1004    -0.0950 C.ar    
  17 C17            6.6970    -3.5543    -1.1715 C.ar    
  18 C18            5.3172    -3.4751    -1.1548 C.ar    
  19 C19            1.0202    -4.3654    -1.3071 C.3     
  20 C20            4.5824    -2.8799    -2.3281 C.3     
  21 H21           -0.9209     1.9277    -0.1128 H       
  22 H22           -0.9029    -0.5032    -0.0444 H       
  23 H23            1.1864     3.1968    -0.1844 H       
  24 H24            3.3388     2.0133    -0.1982 H       
  25 H25            2.9307    -4.0499     1.9693 H       
  26 H26            2.9846    -4.1537    -2.1656 H       
  27 H27            2.7622    -5.6277    -1.1929 H       
  28 H28            4.7342    -4.8421     1.8734 H       
  29 H29            7.1921    -4.9900     1.8405 H       
  30 H30            8.4491    -4.1648    -0.1091 H       
  31 H31            7.2484    -3.1922    -2.0266 H       
  32 H32            0.6135    -4.8789    -2.1783 H       
  33 H33            0.5722    -4.7752    -0.4018 H       
  34 H34            0.7946    -3.3012    -1.3745 H       
  35 H35            4.4332    -3.6453    -3.0896 H       
  36 H36            3.6146    -2.5028    -1.9975 H       
  37 H37            5.1679    -2.0609    -2.7460 H       
@<TRIPOS>BOND
   1    1    2 ar
   2    1    3 ar
   3    1   21 1
   4    2    4 ar
   5    2   22 1
   6    3    5 ar
   7    3   23 1
   8    4    6 1
   9    4    7 ar
  10    5    7 ar
  11    5   24 1
  12    6    8 2
  13    7    9 1
  14    8   10 1
  15    8    9 1
  16   10   11 1
  17   10   12 1
  18   10   13 1
  19   11   25 1
  20   12   19 1
  21   12   26 1
  22   12   27 1
  23   13   14 ar
  24   13   18 ar
  25   14   15 ar
  26   14   28 1
  27   15   16 ar
  28   15   29 1
  29   16   17 ar
  30   16   30 1
  31   17   18 ar
  32   17   31 1
  33   18   20 1
  34   19   32 1
  35   19   33 1
  36   19   34 1
  37   20   35 1
  38   20   36 1
  39   20   37 1

#	End of record

