#	Name: ASD01410484
#	Creating user name:	WinNT
#	Creation time:	15. 06. 2019 19:17

#	Modifying user name:	WinNT
#	Modification time:	15. 06. 2019 19:17

#	Program:	/corina/corina34_cracker 3.40 0067  02.08.2006

@<TRIPOS>MOLECULE
ASD01410484
  86   90    0    0    0
SMALL
NO_CHARGES


@<TRIPOS>ATOM
   1 C1             1.0990     2.3454    -3.4443 C.ar    
   2 C2             1.7329     1.6574    -4.4695 C.ar    
   3 C3             2.9181     0.9982    -4.2090 C.ar    
   4 N4             3.4505     1.0157    -3.0021 N.ar    
   5 C5             2.8763     1.6602    -1.9994 C.ar    
   6 C6             1.6828     2.3449    -2.1893 C.ar    
   7 O7             3.4584     1.6517    -0.7741 O.3     
   8 C8             4.5693     0.8865    -0.6002 C.ar    
   9 C9             5.8104     1.3592    -1.0190 C.ar    
  10 C10            6.9453     0.5886    -0.8465 C.ar    
  11 C11            6.8537    -0.6624    -0.2545 C.ar    
  12 C12            5.6051    -1.1437     0.1696 C.ar    
  13 C13            4.4638    -0.3548    -0.0035 C.ar    
  14 F14            5.9059     2.5765    -1.5972 F       
  15 N15            7.9981    -1.4395    -0.0815 N.am    
  16 C16            8.6426    -1.4358     1.1021 C.2     
  17 C17            8.5000    -2.2602    -1.1864 C.3     
  18 O18            8.1753    -0.8332     2.0452 O.2     
  19 C19            9.9440    -2.1804     1.2538 C.3     
  20 C20           10.3810    -2.1502     2.7197 C.3     
  21 C21           10.5689    -0.6988     3.1660 C.3     
  22 C22           11.6409    -0.0337     2.3003 C.3     
  23 C23           11.2038    -0.0640     0.8344 C.3     
  24 C24           11.0160    -1.5154     0.3881 C.3     
  25 C25            8.7410    -1.3749    -2.4107 C.3     
  26 C26            1.1341     1.6298    -5.8522 C.3     
  27 C27           11.8288     1.4176     2.7466 C.3     
  28 C28            1.6690     2.8117    -6.6633 C.3     
  29 C29            1.0702     2.7840    -8.0460 C.ar    
  30 C30            0.4062     3.8972    -8.5250 C.ar    
  31 N31            1.1907     1.6996    -8.7869 N.ar    
  32 C32            0.6835     1.6302   -10.0020 C.ar    
  33 C33            0.0020     2.7027   -10.5460 C.ar    
  34 C34           -0.1408     3.8616    -9.7988 C.ar    
  35 C35            9.2653    -2.2320    -3.5646 C.3     
  36 C36            8.2347    -3.3092    -3.9090 C.3     
  37 C37            7.9937    -4.1945    -2.6846 C.3     
  38 C38            7.4695    -3.3373    -1.5308 C.3     
  39 O39            8.7244    -4.1097    -4.9867 O.3     
  40 C40            7.6986    -4.6505    -5.8217 C.3     
  41 C41            1.0325     3.0780    -1.0444 C.3     
  42 F42           -0.1487     3.6820    -1.4882 F       
  43 F43            0.7370     2.1732    -0.0191 F       
  44 F44            1.9057     4.0593    -0.5630 F       
  45 C45            5.4987    -2.4707     0.7991 C.2     
  46 O46            6.5026    -3.1138     1.0345 O.2     
  47 O47            4.2880    -2.9720     1.1142 O.3     
  48 H48            0.1735     2.8727    -3.6227 H       
  49 H49            3.4152     0.4611    -5.0033 H       
  50 H50            7.9048     0.9612    -1.1737 H       
  51 H51            3.5001    -0.7192     0.3205 H       
  52 H52            9.4360    -2.7342    -0.8908 H       
  53 H53            9.8101    -3.2144     0.9358 H       
  54 H54            9.6173    -2.6240     3.3364 H       
  55 H55           11.3223    -2.6887     2.8294 H       
  56 H56            9.6276    -0.1602     3.0563 H       
  57 H57           10.8803    -0.6772     4.2104 H       
  58 H58           12.5822    -0.5723     2.4100 H       
  59 H59           10.2626     0.4746     0.7247 H       
  60 H60           11.9675     0.4098     0.2177 H       
  61 H61           11.9572    -2.0540     0.4978 H       
  62 H62           10.7046    -1.5370    -0.6562 H       
  63 H63            7.8050    -0.9010    -2.7063 H       
  64 H64            9.4752    -0.6076    -2.1654 H       
  65 H65            1.4052     0.6972    -6.3470 H       
  66 H66            0.0488     1.7004    -5.7796 H       
  67 H67           12.1401     1.4392     3.7910 H       
  68 H68           12.5925     1.8914     2.1299 H       
  69 H69           10.8875     1.9562     2.6369 H       
  70 H70            1.3979     3.7443    -6.1686 H       
  71 H71            2.7543     2.7410    -6.7359 H       
  72 H72            0.3141     4.7836    -7.9149 H       
  73 H73            0.8023     0.7251   -10.5791 H       
  74 H74           -0.4108     2.6400   -11.5420 H       
  75 H75           -0.6686     4.7152   -10.1978 H       
  76 H76            9.4370    -1.6013    -4.4369 H       
  77 H77           10.2013    -2.7060    -3.2690 H       
  78 H78            7.2987    -2.8352    -4.2046 H       
  79 H79            7.2595    -4.9618    -2.9300 H       
  80 H80            8.9297    -4.6684    -2.3891 H       
  81 H81            7.2978    -3.9680    -0.6585 H       
  82 H82            6.5335    -2.8634    -1.8263 H       
  83 H83            7.0399    -5.2820    -5.2255 H       
  84 H84            7.1217    -3.8370    -6.2617 H       
  85 H85            8.1517    -5.2450    -6.6150 H       
  86 H86            4.2686    -3.8467     1.5259 H       
@<TRIPOS>BOND
   1    1    2 ar
   2    1    6 ar
   3    1   48 1
   4    2    3 ar
   5    2   26 1
   6    3    4 ar
   7    3   49 1
   8    4    5 ar
   9    5    6 ar
  10    5    7 1
  11    6   41 1
  12    7    8 1
  13    8    9 ar
  14    8   13 ar
  15    9   10 ar
  16    9   14 1
  17   10   11 ar
  18   10   50 1
  19   11   12 ar
  20   11   15 1
  21   12   13 ar
  22   12   45 1
  23   13   51 1
  24   15   16 am
  25   15   17 1
  26   16   18 2
  27   16   19 1
  28   17   25 1
  29   17   38 1
  30   17   52 1
  31   19   20 1
  32   19   24 1
  33   19   53 1
  34   20   21 1
  35   20   54 1
  36   20   55 1
  37   21   22 1
  38   21   56 1
  39   21   57 1
  40   22   23 1
  41   22   27 1
  42   22   58 1
  43   23   24 1
  44   23   59 1
  45   23   60 1
  46   24   61 1
  47   24   62 1
  48   25   35 1
  49   25   63 1
  50   25   64 1
  51   26   28 1
  52   26   65 1
  53   26   66 1
  54   27   67 1
  55   27   68 1
  56   27   69 1
  57   28   29 1
  58   28   70 1
  59   28   71 1
  60   29   31 ar
  61   29   30 ar
  62   30   34 ar
  63   30   72 1
  64   31   32 ar
  65   32   33 ar
  66   32   73 1
  67   33   34 ar
  68   33   74 1
  69   34   75 1
  70   35   36 1
  71   35   76 1
  72   35   77 1
  73   36   37 1
  74   36   39 1
  75   36   78 1
  76   37   38 1
  77   37   79 1
  78   37   80 1
  79   38   81 1
  80   38   82 1
  81   39   40 1
  82   40   83 1
  83   40   84 1
  84   40   85 1
  85   41   42 1
  86   41   43 1
  87   41   44 1
  88   45   46 2
  89   45   47 1
  90   47   86 1

#	End of record

