#	Name: ASD03091929
#	Creating user name:	WinNT
#	Creation time:	15. 06. 2019 20:31

#	Modifying user name:	WinNT
#	Modification time:	15. 06. 2019 20:31

#	Program:	/corina/corina34_cracker 3.40 0067  02.08.2006

@<TRIPOS>MOLECULE
ASD03091929
  60   63    0    0    0
SMALL
NO_CHARGES


@<TRIPOS>ATOM
   1 C1            -0.0169     1.3981     0.0097 C.ar    
   2 C2            -1.2311     2.0674     0.0172 C.ar    
   3 C3            -2.4123     1.3474     0.0076 C.ar    
   4 C4            -2.3931    -0.0380    -0.0096 C.ar    
   5 C5            -1.1930    -0.7187    -0.0124 C.ar    
   6 C6             0.0021    -0.0041     0.0020 C.ar    
   7 O7             1.1601     2.0713     0.0021 O.3     
   8 C8             2.2747     1.4625     0.6521 C.3     
   9 N9             2.4123     0.0609     0.2541 N.am    
  10 C10            1.3113    -0.6873     0.0165 C.2     
  11 C11           -3.6900    -0.8053    -0.0247 C.3     
  12 C12           -4.1793    -0.9370    -1.4440 C.ar    
  13 C13           -3.7948    -2.0233    -2.2084 C.ar    
  14 O14            1.3964    -1.8844    -0.1786 O.2     
  15 C15           -3.7314     2.0761     0.0162 C.3     
  16 C16            3.7444    -0.5322     0.1128 C.3     
  17 C17           -5.0162     0.0258    -1.9774 C.ar    
  18 C18           -4.2412    -2.1465    -3.5096 C.ar    
  19 C19           -5.0771    -1.1784    -4.0499 C.ar    
  20 C20           -5.4663    -0.0921    -3.2779 C.ar    
  21 N21           -5.5314    -1.3004    -5.3704 N.pl3   
  22 C22            4.1785    -1.1353     1.4502 C.3     
  23 O23            3.3378    -2.2480     1.7772 O.3     
  24 C24            4.1208    -3.4501     1.8490 C.3     
  25 C25            5.5618    -2.9762     2.1651 C.3     
  26 C26            5.6264    -1.6604     1.3426 C.3     
  27 C27           -6.3404    -0.4311    -6.0172 C.2     
  28 C28           -6.5417    -0.9082    -7.2674 C.2     
  29 C29           -5.8330    -2.1084    -7.3898 C.2     
  30 N30           -5.2229    -2.3414    -6.2556 N.2     
  31 F31           -1.2605     3.4180     0.0343 F       
  32 H32           -1.1806    -1.7985    -0.0252 H       
  33 H33            3.1835     2.0016     0.3844 H       
  34 H34            2.1327     1.5159     1.7315 H       
  35 H35           -3.5302    -1.7972     0.3980 H       
  36 H36           -4.4340    -0.2732     0.5682 H       
  37 H37           -3.1446    -2.7760    -1.7876 H       
  38 H38           -4.0490     2.2648    -1.0092 H       
  39 H39           -4.4800     1.4663     0.5221 H       
  40 H40           -3.6193     3.0242     0.5422 H       
  41 H41            3.7154    -1.3141    -0.6460 H       
  42 H42            4.4553     0.2381    -0.1861 H       
  43 H43           -5.3186     0.8707    -1.3764 H       
  44 H44           -3.9401    -2.9947    -4.1064 H       
  45 H45           -6.1202     0.6601    -3.6939 H       
  46 H46            4.1147    -0.3807     2.2342 H       
  47 H47            3.7513    -4.0953     2.6461 H       
  48 H48            4.0962    -3.9752     0.8941 H       
  49 H49            5.6861    -2.7803     3.2301 H       
  50 H50            6.2989    -3.6971     1.8114 H       
  51 H51            5.8889    -1.8642     0.3046 H       
  52 H52            6.3283    -0.9570     1.7906 H       
  53 H53           -6.7522     0.4801    -5.6091 H       
  54 H54           -7.1435    -0.4446    -8.0351 H       
  55 H55           -5.7929    -2.7328    -8.2700 H       
  56 C56           11.8555     9.5078     9.1131 C.3     
  57 H57           11.8703     8.4180     9.1071 H       
  58 H58           12.8781     9.8851     9.1054 H       
  59 H59           11.3283     9.8689     8.2301 H       
  60 H60           11.3453     9.8594    10.0099 H       
@<TRIPOS>BOND
   1    1    6 ar
   2    1    7 1
   3    1    2 ar
   4    2    3 ar
   5    2   31 1
   6    3    4 ar
   7    3   15 1
   8    4    5 ar
   9    4   11 1
  10    5    6 ar
  11    5   32 1
  12    6   10 1
  13    7    8 1
  14    8    9 1
  15    8   33 1
  16    8   34 1
  17    9   10 am
  18    9   16 1
  19   10   14 2
  20   11   12 1
  21   11   35 1
  22   11   36 1
  23   12   13 ar
  24   12   17 ar
  25   13   18 ar
  26   13   37 1
  27   15   38 1
  28   15   39 1
  29   15   40 1
  30   16   22 1
  31   16   41 1
  32   16   42 1
  33   17   20 ar
  34   17   43 1
  35   18   19 ar
  36   18   44 1
  37   19   20 ar
  38   19   21 1
  39   20   45 1
  40   21   30 1
  41   21   27 1
  42   22   23 1
  43   22   26 1
  44   22   46 1
  45   23   24 1
  46   24   25 1
  47   24   47 1
  48   24   48 1
  49   25   26 1
  50   25   49 1
  51   25   50 1
  52   26   51 1
  53   26   52 1
  54   27   28 2
  55   27   53 1
  56   28   29 1
  57   28   54 1
  58   29   30 2
  59   29   55 1
  60   56   57 1
  61   56   58 1
  62   56   59 1
  63   56   60 1

#	End of record

