#	Name: ASD08151326
#	Creating user name:	WinNT
#	Creation time:	15. 06. 2019 21:17

#	Modifying user name:	WinNT
#	Modification time:	15. 06. 2019 21:17

#	Program:	/corina/corina34_cracker 3.40 0067  02.08.2006

@<TRIPOS>MOLECULE
ASD08151326
  71   75    0    0    0
SMALL
NO_CHARGES


@<TRIPOS>ATOM
   1 C1            -0.0513     1.3277     0.2677 C.ar    
   2 C2             0.0224     0.5021    -0.8462 C.ar    
   3 C3             1.2384     0.0595    -1.3172 C.ar    
   4 C4             2.4129     0.4444    -0.6682 C.ar    
   5 C5             2.3343     1.2846     0.4650 C.ar    
   6 C6             1.0940     1.7213     0.9253 C.ar    
   7 N7             3.6314     0.0312    -1.0980 N.2     
   8 C8             4.7236     0.3890    -0.4940 C.2     
   9 N9             4.7422     1.1945     0.6024 N.am    
  10 C10            3.5890     1.6715     1.1262 C.2     
  11 C11            5.9656     1.5325     1.1946 C.ar    
  12 C12            6.6536     2.6630     0.7736 C.ar    
  13 C13            7.8595     2.9939     1.3599 C.ar    
  14 C14            8.3822     2.2006     2.3647 C.ar    
  15 C15            7.6998     1.0740     2.7858 C.ar    
  16 C16            6.0374    -0.1138    -1.0345 C.3     
  17 N17            5.8674    -1.4782    -1.5402 N.pl3   
  18 O18            3.5908     2.3933     2.1064 O.2     
  19 C19            6.4904     0.7412     2.2078 C.ar    
  20 C20            6.5031     0.7973    -2.1720 C.3     
  21 C21            6.9537    -2.3334    -1.6026 C.ar    
  22 C22            6.8090    -3.6452    -2.0848 C.ar    
  23 C23            7.9485    -4.4667    -2.1248 C.ar    
  24 N24            9.1122    -3.9777    -1.7093 N.ar    
  25 C25            9.2004    -2.7414    -1.2655 C.ar    
  26 N26            8.1590    -1.9311    -1.2132 N.ar    
  27 N27            5.7721    -4.3777    -2.5575 N.2     
  28 C28            6.1922    -5.5672    -2.8773 C.2     
  29 N29            7.5285    -5.6716    -2.6288 N.pl3   
  30 C30            1.0054     2.6176     2.1335 C.3     
  31 C31            8.3630    -6.8537    -2.8579 C.3     
  32 O32            7.5593    -7.9081    -3.3911 O.3     
  33 C33            8.2807    -9.1137    -3.6522 C.3     
  34 C34            7.3259   -10.1672    -4.2173 C.3     
  35 Si35           8.2664   -11.7389    -4.5577 Si      
  36 C36            9.0183   -12.3682    -2.9736 C.3     
  37 C37            7.1037   -13.0217    -5.2458 C.3     
  38 C38            9.6176   -11.3985    -5.7943 C.3     
  39 H39           -1.0141     1.6680     0.6191 H       
  40 H40           -0.8853     0.2031    -1.3493 H       
  41 H41            1.2831    -0.5827    -2.1844 H       
  42 H42            6.2462     3.2825    -0.0116 H       
  43 H43            8.3950     3.8730     1.0329 H       
  44 H44            9.3256     2.4613     2.8214 H       
  45 H45            8.1108     0.4563     3.5706 H       
  46 H46            6.7824    -0.1114    -0.2389 H       
  47 H47            4.9934    -1.7822    -1.8312 H       
  48 H48            5.9577    -0.1386     2.5373 H       
  49 H49            5.7444     0.8185    -2.9544 H       
  50 H50            6.6585     1.8060    -1.7892 H       
  51 H51            7.4382     0.4166    -2.5829 H       
  52 H52           10.1612    -2.3750    -0.9353 H       
  53 H53            5.5734    -6.3553    -3.2802 H       
  54 H54            1.1674     3.6522     1.8311 H       
  55 H55            0.0182     2.5215     2.5856 H       
  56 H56            1.7665     2.3273     2.8578 H       
  57 H57            9.1553    -6.6077    -3.5648 H       
  58 H58            8.8046    -7.1750    -1.9145 H       
  59 H59            9.0713    -8.9145    -4.3757 H       
  60 H60            8.7206    -9.4818    -2.7254 H       
  61 H61            6.5353   -10.3663    -3.4938 H       
  62 H62            6.8859    -9.7990    -5.1441 H       
  63 H63            8.2277   -12.5673    -2.2502 H       
  64 H64            9.5686   -13.2877    -3.1728 H       
  65 H65            9.6986   -11.6176    -2.5711 H       
  66 H66            6.6638   -12.6535    -6.1726 H       
  67 H67            7.6540   -13.9413    -5.4450 H       
  68 H68            6.3131   -13.2209    -4.5223 H       
  69 H69           10.2979   -10.6480    -5.3917 H       
  70 H70           10.1679   -12.3181    -5.9935 H       
  71 H71            9.1777   -11.0304    -6.7211 H       
@<TRIPOS>BOND
   1    1    2 ar
   2    1    6 ar
   3    1   39 1
   4    2    3 ar
   5    2   40 1
   6    3    4 ar
   7    3   41 1
   8    4    5 ar
   9    4    7 1
  10    5    6 ar
  11    5   10 1
  12    6   30 1
  13    7    8 2
  14    8    9 1
  15    8   16 1
  16    9   10 am
  17    9   11 1
  18   10   18 2
  19   11   12 ar
  20   11   19 ar
  21   12   13 ar
  22   12   42 1
  23   13   14 ar
  24   13   43 1
  25   14   15 ar
  26   14   44 1
  27   15   19 ar
  28   15   45 1
  29   16   17 1
  30   16   20 1
  31   16   46 1
  32   17   21 1
  33   17   47 1
  34   19   48 1
  35   20   49 1
  36   20   50 1
  37   20   51 1
  38   21   22 ar
  39   21   26 ar
  40   22   23 ar
  41   22   27 1
  42   23   24 ar
  43   23   29 1
  44   24   25 ar
  45   25   26 ar
  46   25   52 1
  47   27   28 2
  48   28   29 1
  49   28   53 1
  50   29   31 1
  51   30   54 1
  52   30   55 1
  53   30   56 1
  54   31   32 1
  55   31   57 1
  56   31   58 1
  57   32   33 1
  58   33   34 1
  59   33   59 1
  60   33   60 1
  61   34   35 1
  62   34   61 1
  63   34   62 1
  64   35   36 1
  65   35   37 1
  66   35   38 1
  67   36   63 1
  68   36   64 1
  69   36   65 1
  70   37   66 1
  71   37   67 1
  72   37   68 1
  73   38   69 1
  74   38   70 1
  75   38   71 1

#	End of record

