#	Name: ASD01913100
#	Creating user name:	WinNT
#	Creation time:	15. 06. 2019 20:00

#	Modifying user name:	WinNT
#	Modification time:	15. 06. 2019 20:00

#	Program:	/corina/corina34_cracker 3.40 0067  02.08.2006

@<TRIPOS>MOLECULE
ASD01913100
  39   40    0    0    0
SMALL
NO_CHARGES


@<TRIPOS>ATOM
   1 C1            -0.0168     1.3858     0.0097 C.ar    
   2 C2             0.0021    -0.0041     0.0020 C.ar    
   3 C3             1.2130    -0.6863    -0.0132 C.ar    
   4 C4             2.3993     0.0128    -0.0203 C.ar    
   5 C5             2.3846     1.4101    -0.0126 C.ar    
   6 C6             1.1652     2.0922     0.0022 C.ar    
   7 N7             3.6376     3.5111    -0.0123 N.am    
   8 C8             3.6538     2.1635    -0.0197 C.2     
   9 O9             4.7140     1.5683    -0.0322 O.2     
  10 O10           -1.1649    -0.6967     0.0099 O.3     
  11 C11           -1.0730    -2.1228     0.0013 C.3     
  12 C12            4.8974     4.2589    -0.0193 C.3     
  13 C13           -2.4796    -2.7246     0.0120 C.3     
  14 C14           -2.3812    -4.2514     0.0029 C.3     
  15 C15           -3.7878    -4.8532     0.0136 C.3     
  16 C16            4.7702     5.6746    -0.6061 C.3     
  17 C17            5.7179     6.1384     0.5126 C.3     
  18 C18            5.2226     4.9305     1.3253 C.3     
  19 H19           -0.9597     1.9123     0.0170 H       
  20 H20            1.2235    -1.7663    -0.0191 H       
  21 H21            3.3397    -0.5180    -0.0314 H       
  22 H22            1.1497     3.1721     0.0078 H       
  23 H23            2.7919     3.9859    -0.0024 H       
  24 H24           -0.5457    -2.4475    -0.8957 H       
  25 H25           -0.5280    -2.4570     0.8841 H       
  26 H26            5.7269     3.6868    -0.4351 H       
  27 H27           -3.0069    -2.3999     0.9090 H       
  28 H28           -3.0245    -2.3903    -0.8708 H       
  29 H29           -1.8539    -4.5761    -0.8942 H       
  30 H30           -1.8362    -4.5856     0.8857 H       
  31 H31           -3.7177    -5.9409     0.0070 H       
  32 H32           -4.3151    -4.5285     0.9106 H       
  33 H33           -4.3327    -4.5189    -0.8693 H       
  34 H34            5.1937     5.7727    -1.6057 H       
  35 H35            3.7659     6.0910    -0.5281 H       
  36 H36            6.7725     6.0807     0.2433 H       
  37 H37            5.4430     7.0994     0.9473 H       
  38 H38            4.3420     5.1434     1.9313 H       
  39 H39            6.0114     4.4277     1.8850 H       
@<TRIPOS>BOND
   1    1    2 ar
   2    1    6 ar
   3    1   19 1
   4    2    3 ar
   5    2   10 1
   6    3    4 ar
   7    3   20 1
   8    4    5 ar
   9    4   21 1
  10    5    6 ar
  11    5    8 1
  12    6   22 1
  13    7    8 am
  14    7   12 1
  15    7   23 1
  16    8    9 2
  17   10   11 1
  18   11   13 1
  19   11   24 1
  20   11   25 1
  21   12   16 1
  22   12   18 1
  23   12   26 1
  24   13   14 1
  25   13   27 1
  26   13   28 1
  27   14   15 1
  28   14   29 1
  29   14   30 1
  30   15   31 1
  31   15   32 1
  32   15   33 1
  33   16   17 1
  34   16   34 1
  35   16   35 1
  36   17   18 1
  37   17   36 1
  38   17   37 1
  39   18   38 1
  40   18   39 1

#	End of record

