#	Name: ASD01917380
#	Creating user name:	WinNT
#	Creation time:	15. 06. 2019 20:09

#	Modifying user name:	WinNT
#	Modification time:	15. 06. 2019 20:09

#	Program:	/corina/corina34_cracker 3.40 0067  02.08.2006

@<TRIPOS>MOLECULE
ASD01917380
  46   48    0    0    0
SMALL
NO_CHARGES


@<TRIPOS>ATOM
   1 C1            -0.0188     1.5345     0.0105 C.3     
   2 C2             0.0021    -0.0041     0.0020 C.3     
   3 C3             1.0346    -0.4943     1.0190 C.3     
   4 C4             0.7319     0.0808     2.4040 C.3     
   5 C5             0.6797     1.6157     2.3091 C.3     
   6 C6             1.8973     2.0694     1.4711 C.3     
   7 C7             1.4500     2.0174    -0.0010 C.3     
   8 C8            -0.5348     1.9653     1.4089 C.3     
   9 C9            -0.8269     2.1076    -1.1251 C.2     
  10 O10           -0.3038     2.8442    -1.9274 O.2     
  11 O11           -2.1279     1.7997    -1.2453 O.3     
  12 N12            0.6294     2.2583     3.6246 N.am    
  13 C13            1.6224     2.0542     4.5127 C.2     
  14 O14            2.5594     1.3372     4.2223 O.2     
  15 C15            1.5715     2.7041     5.8431 C.ar    
  16 C16            2.5978     2.4943     6.7635 C.ar    
  17 N17            0.5495     3.4937     6.1610 N.ar    
  18 N18            2.5481     3.0763     7.9482 N.ar    
  19 C19            1.5280     3.8558     8.2607 C.ar    
  20 C20            0.5078     4.0705     7.3454 C.ar    
  21 C21           -0.6498     4.9656     7.7056 C.3     
  22 C22           -2.8439     2.3879    -2.3632 C.3     
  23 C23           -4.3021     1.9254    -2.3350 C.3     
  24 H24           -0.9836    -0.3836     0.2712 H       
  25 H25            0.2722    -0.3597    -0.9923 H       
  26 H26            1.0056    -1.5829     1.0662 H       
  27 H27            2.0288    -0.1759     0.7056 H       
  28 H28           -0.2295    -0.2959     2.7531 H       
  29 H29            1.5160    -0.2150     3.1010 H       
  30 H30            2.1797     3.0869     1.7411 H       
  31 H31            2.7360     1.3921     1.6319 H       
  32 H32            2.0710     1.3148    -0.5566 H       
  33 H33            1.5146     3.0097    -0.4474 H       
  34 H34           -0.7460     3.0343     1.4353 H       
  35 H35           -1.4134     1.3877     1.6963 H       
  36 H36           -0.1186     2.8307     3.8565 H       
  37 H37            3.4314     1.8570     6.5084 H       
  38 H38            1.4901     4.3303     9.2302 H       
  39 H39           -1.4377     4.3718     8.1689 H       
  40 H40           -0.3132     5.7313     8.4046 H       
  41 H41           -1.0357     5.4412     6.8040 H       
  42 H42           -2.8059     3.4746    -2.2877 H       
  43 H43           -2.3806     2.0722    -3.2980 H       
  44 H44           -4.8396     2.3669    -3.1742 H       
  45 H45           -4.3401     0.8387    -2.4105 H       
  46 H46           -4.7653     2.2411    -1.4002 H       
@<TRIPOS>BOND
   1    1    2 1
   2    1    7 1
   3    1    8 1
   4    1    9 1
   5    2    3 1
   6    2   24 1
   7    2   25 1
   8    3    4 1
   9    3   26 1
  10    3   27 1
  11    4    5 1
  12    4   28 1
  13    4   29 1
  14    5    6 1
  15    5    8 1
  16    5   12 1
  17    6    7 1
  18    6   30 1
  19    6   31 1
  20    7   32 1
  21    7   33 1
  22    8   34 1
  23    8   35 1
  24    9   10 2
  25    9   11 1
  26   11   22 1
  27   12   13 am
  28   12   36 1
  29   13   14 2
  30   13   15 1
  31   15   16 ar
  32   15   17 ar
  33   16   18 ar
  34   16   37 1
  35   17   20 ar
  36   18   19 ar
  37   19   20 ar
  38   19   38 1
  39   20   21 1
  40   21   39 1
  41   21   40 1
  42   21   41 1
  43   22   23 1
  44   22   42 1
  45   22   43 1
  46   23   44 1
  47   23   45 1
  48   23   46 1

#	End of record

