#	Name: ASD01410224
#	Creating user name:	WinNT
#	Creation time:	15. 06. 2019 19:17

#	Modifying user name:	WinNT
#	Modification time:	15. 06. 2019 19:17

#	Program:	/corina/corina34_cracker 3.40 0067  02.08.2006

@<TRIPOS>MOLECULE
ASD01410224
  43   45    0    0    0
SMALL
NO_CHARGES


@<TRIPOS>ATOM
   1 C1            -0.7720     0.6016     0.2981 C.2     
   2 C2            -0.9025    -0.7387     0.1810 C.2     
   3 C3            -2.2684    -1.0097     0.0113 C.2     
   4 C4            -2.9166     0.2096     0.0343 C.2     
   5 O5            -1.9841     1.1683     0.2146 O.3     
   6 C6            -4.8171     1.6802    -0.0603 C.2     
   7 S7            -3.9412     3.2102     0.1526 S.3     
   8 C8            -5.4003     4.2130     0.0627 C.2     
   9 N9            -6.4143     3.3987    -0.1125 N.2     
  10 C10           -6.2191     2.0996    -0.1872 C.2     
  11 C11           -4.3082     0.4160    -0.1019 C.2     
  12 O12           -7.1321     1.3048    -0.3499 O.2     
  13 N13           -5.4583     5.5793     0.1579 N.pl3   
  14 C14           -6.7372     6.2722    -0.0172 C.3     
  15 C15            0.5267     1.3398     0.4972 C.3     
  16 C16            1.1229     1.6993    -0.8653 C.3     
  17 C17           -8.2543     6.3486    -2.0174 C.ar    
  18 C18           -6.9842     6.5073    -1.4851 C.ar    
  19 C19           -5.9473     6.8844    -2.3177 C.ar    
  20 N20           -6.1559     7.0928    -3.6029 N.ar    
  21 C21           -7.3506     6.9513    -4.1434 C.ar    
  22 C22           -8.4349     6.5762    -3.3734 C.ar    
  23 C23           -6.5838     7.3759     2.1981 C.2     
  24 O24           -6.6485     6.2512     2.6350 O.2     
  25 O25           -6.4139     8.4120     3.0343 O.3     
  26 C26           -6.6939     7.6153     0.7143 C.3     
  27 H27           -0.1041    -1.4653     0.2117 H       
  28 H28           -2.7237    -1.9811    -0.1134 H       
  29 H29           -4.9684    -0.4276    -0.2390 H       
  30 H30           -4.6526     6.0873     0.3413 H       
  31 H31           -7.5409     5.6607     0.3931 H       
  32 H32            0.3429     2.2516     1.0654 H       
  33 H33            1.2249     0.7057     1.0435 H       
  34 H34            2.0622     2.2332    -0.7213 H       
  35 H35            1.3067     0.7874    -1.4335 H       
  36 H36            0.4246     2.3333    -1.4116 H       
  37 H37           -9.0827     6.0505    -1.3918 H       
  38 H38           -4.9548     7.0102    -1.9108 H       
  39 H39           -7.4830     7.1311    -5.2001 H       
  40 H40           -9.4108     6.4624    -3.8218 H       
  41 H41           -6.3486     8.2089     3.9774 H       
  42 H42           -5.8308     8.1870     0.3734 H       
  43 H43           -7.6060     8.1736     0.5030 H       
@<TRIPOS>BOND
   1    1    2 2
   2    1   15 1
   3    1    5 1
   4    2    3 1
   5    2   27 1
   6    3    4 2
   7    3   28 1
   8    4    5 1
   9    4   11 1
  10    6    7 1
  11    6   10 1
  12    6   11 2
  13    7    8 1
  14    8    9 2
  15    8   13 1
  16    9   10 1
  17   10   12 2
  18   11   29 1
  19   13   14 1
  20   13   30 1
  21   14   18 1
  22   14   26 1
  23   14   31 1
  24   15   16 1
  25   15   32 1
  26   15   33 1
  27   16   34 1
  28   16   35 1
  29   16   36 1
  30   17   18 ar
  31   17   22 ar
  32   17   37 1
  33   18   19 ar
  34   19   20 ar
  35   19   38 1
  36   20   21 ar
  37   21   22 ar
  38   21   39 1
  39   22   40 1
  40   23   24 2
  41   23   25 1
  42   23   26 1
  43   25   41 1
  44   26   42 1
  45   26   43 1

#	End of record

