#	Name: ASD01940194
#	Creating user name:	WinNT
#	Creation time:	15. 06. 2019 20:12

#	Modifying user name:	WinNT
#	Modification time:	15. 06. 2019 20:12

#	Program:	/corina/corina34_cracker 3.40 0067  02.08.2006

@<TRIPOS>MOLECULE
ASD01940194
  59   61    0    0    0
SMALL
NO_CHARGES


@<TRIPOS>ATOM
   1 C1            -1.1050     3.0666     1.0753 C.ar    
   2 C2            -0.9636     2.8599    -0.2860 C.ar    
   3 C3            -2.0178     2.3504    -1.0255 C.ar    
   4 C4            -3.2187     2.0453    -0.4059 C.ar    
   5 C5            -3.3668     2.2504     0.9599 C.ar    
   6 C6            -2.3038     2.7576     1.7040 C.ar    
   7 N7            -2.4482     2.9667     3.0840 N.am    
   8 S8            -1.3243     2.3564     4.1359 S.o2    
   9 O9            -2.0584     1.4471     4.9443 O.2     
  10 O10           -0.2691     1.9048     3.2982 O.2     
  11 F11           -1.8750     2.1509    -2.3540 F       
  12 F12           -4.2456     1.5488    -1.1299 F       
  13 N13           -4.5809     1.9425     1.5890 N.pl3   
  14 C14           -4.8329     0.6369     2.0212 C.ar    
  15 C15           -6.1367     0.2293     2.2864 C.ar    
  16 C16           -3.7836    -0.2578     2.1814 C.ar    
  17 C17           -4.0358    -1.5474     2.6088 C.ar    
  18 C18           -5.3313    -1.9485     2.8766 C.ar    
  19 C19           -6.3811    -1.0624     2.7135 C.ar    
  20 F20           -7.1618     1.0947     2.1271 F       
  21 F21           -0.0743     3.5638     1.7934 F       
  22 C22           -5.6013    -3.3562     3.3420 C.3     
  23 C23           -0.7928     3.7899     5.1123 C.3     
  24 C24           -0.3273     4.9129     4.1832 C.3     
  25 C25           -1.9509     4.2838     5.9969 C.3     
  26 C26            0.3501     3.3853     6.0660 C.3     
  27 C27            0.0743     4.1977     7.3556 C.3     
  28 C28           -1.4722     4.1617     7.4583 C.3     
  29 C29           -0.0980     6.1872     4.9983 C.3     
  30 C30            0.2398     7.3427     4.0542 C.3     
  31 O31           -0.8880     7.6237     3.2227 O.3     
  32 C32            0.5908     8.5856     4.8745 C.3     
  33 O33            1.0184     9.6299     3.9977 O.3     
  34 H34           -0.0291     3.0969    -0.7727 H       
  35 H35           -3.2064     3.4687     3.4217 H       
  36 H36           -5.2463     2.6351     1.7245 H       
  37 H37           -2.7709     0.0538     1.9719 H       
  38 H38           -3.2194    -2.2434     2.7334 H       
  39 H39           -7.3920    -1.3790     2.9237 H       
  40 H40           -5.5580    -3.3936     4.4305 H       
  41 H41           -6.5911    -3.6660     3.0068 H       
  42 H42           -4.8501    -4.0270     2.9252 H       
  43 H43            0.6033     4.6200     3.6972 H       
  44 H44           -1.0898     5.0979     3.4265 H       
  45 H45           -2.1808     5.3237     5.7650 H       
  46 H46           -2.8323     3.6621     5.8396 H       
  47 H47            0.3132     2.3159     6.2736 H       
  48 H48            1.3161     3.6594     5.6418 H       
  49 H49            0.5309     3.7163     8.2205 H       
  50 H50            0.4300     5.2225     7.2501 H       
  51 H51           -1.8351     5.0021     8.0501 H       
  52 H52           -1.8039     3.2178     7.8909 H       
  53 H53           -1.0017     6.4278     5.5583 H       
  54 H54            0.7284     6.0311     5.6917 H       
  55 H55            1.0905     7.0662     3.4313 H       
  56 H56           -1.6832     7.8773     3.7110 H       
  57 H57           -0.2875     8.9144     5.4299 H       
  58 H58            1.3932     8.3457     5.5722 H       
  59 H59            1.2576    10.4502     4.4504 H       
@<TRIPOS>BOND
   1    1    2 ar
   2    1   21 1
   3    1    6 ar
   4    2    3 ar
   5    2   34 1
   6    3    4 ar
   7    3   11 1
   8    4    5 ar
   9    4   12 1
  10    5    6 ar
  11    5   13 1
  12    6    7 1
  13    7    8 am
  14    7   35 1
  15    8    9 2
  16    8   10 2
  17    8   23 1
  18   13   14 1
  19   13   36 1
  20   14   15 ar
  21   14   16 ar
  22   15   20 1
  23   15   19 ar
  24   16   17 ar
  25   16   37 1
  26   17   18 ar
  27   17   38 1
  28   18   19 ar
  29   18   22 1
  30   19   39 1
  31   22   40 1
  32   22   41 1
  33   22   42 1
  34   23   24 1
  35   23   25 1
  36   23   26 1
  37   24   29 1
  38   24   43 1
  39   24   44 1
  40   25   28 1
  41   25   45 1
  42   25   46 1
  43   26   27 1
  44   26   47 1
  45   26   48 1
  46   27   28 1
  47   27   49 1
  48   27   50 1
  49   28   51 1
  50   28   52 1
  51   29   30 1
  52   29   53 1
  53   29   54 1
  54   30   31 1
  55   30   32 1
  56   30   55 1
  57   31   56 1
  58   32   33 1
  59   32   57 1
  60   32   58 1
  61   33   59 1

#	End of record

