#	Name: ASD02588006
#	Creating user name:	WinNT
#	Creation time:	15. 06. 2019 20:25

#	Modifying user name:	WinNT
#	Modification time:	15. 06. 2019 20:25

#	Program:	/corina/corina34_cracker 3.40 0067  02.08.2006

@<TRIPOS>MOLECULE
ASD02588006
  32   34    0    0    0
SMALL
NO_CHARGES


@<TRIPOS>ATOM
   1 C1            -0.0165     1.3687     0.0096 C.2     
   2 N2             0.0021    -0.0041     0.0020 N.pl3   
   3 N3            -1.2202    -0.6904     0.0096 N.2     
   4 C4            -2.3461    -0.0228     0.0235 C.2     
   5 N5            -2.3783     1.3085     0.0310 N.2     
   6 C6            -1.2690     2.0272     0.0303 C.2     
   7 C7             1.2979     1.8229    -0.0005 C.2     
   8 C8             2.1237     0.7097    -0.0144 C.2     
   9 C9             1.3052    -0.4206    -0.0126 C.2     
  10 N10           -1.3317     3.4064     0.0386 N.pl3   
  11 F11            1.6971     3.1136     0.0022 F       
  12 F12            3.4746     0.7175    -0.0272 F       
  13 F13           -3.5118    -0.7057     0.0301 F       
  14 C14            1.7469    -1.7658    -0.0245 C.2     
  15 O15            2.9380    -2.0150    -0.0381 O.2     
  16 O16            0.8469    -2.7717    -0.0208 O.3     
  17 C17            1.3632    -4.1041    -0.0333 C.3     
  18 C18            0.2199    -5.0859    -0.0269 C.ar    
  19 C19           -0.3168    -5.5297    -1.2211 C.ar    
  20 C20           -1.3655    -6.4302    -1.2152 C.ar    
  21 C21           -1.8773    -6.8873    -0.0153 C.ar    
  22 C22           -1.3401    -6.4442     1.1789 C.ar    
  23 C23           -0.2885    -5.5470     1.1730 C.ar    
  24 H24           -2.1929     3.8528     0.0450 H       
  25 H25           -0.5145     3.9290     0.0380 H       
  26 H26            1.9644    -4.2524    -0.9303 H       
  27 H27            1.9827    -4.2621     0.8495 H       
  28 H28            0.0831    -5.1725    -2.1586 H       
  29 H29           -1.7852    -6.7764    -2.1482 H       
  30 H30           -2.6972    -7.5903    -0.0107 H       
  31 H31           -1.7402    -6.8011     2.1164 H       
  32 H32            0.1337    -5.2037     2.1059 H       
@<TRIPOS>BOND
   1    1    2 1
   2    1    7 2
   3    1    6 1
   4    2    3 1
   5    2    9 1
   6    3    4 2
   7    4    5 1
   8    4   13 1
   9    5    6 2
  10    6   10 1
  11    7    8 1
  12    7   11 1
  13    8    9 2
  14    8   12 1
  15    9   14 1
  16   10   24 1
  17   10   25 1
  18   14   15 2
  19   14   16 1
  20   16   17 1
  21   17   18 1
  22   17   26 1
  23   17   27 1
  24   18   19 ar
  25   18   23 ar
  26   19   20 ar
  27   19   28 1
  28   20   21 ar
  29   20   29 1
  30   21   22 ar
  31   21   30 1
  32   22   23 ar
  33   22   31 1
  34   23   32 1

#	End of record

