#	Name: ASD03092357
#	Creating user name:	WinNT
#	Creation time:	15. 06. 2019 20:32

#	Modifying user name:	WinNT
#	Modification time:	15. 06. 2019 20:32

#	Program:	/corina/corina34_cracker 3.40 0067  02.08.2006

@<TRIPOS>MOLECULE
ASD03092357
  52   55    0    0    0
SMALL
NO_CHARGES


@<TRIPOS>ATOM
   1 O1             0.8904     1.0034    -0.3453 O.3     
   2 N2             0.7497    -0.1960    -0.2857 N.2     
   3 C3             1.9049    -0.8118    -0.2408 C.2     
   4 C4             2.8975     0.2067    -0.2811 C.2     
   5 C5             2.1837     1.3543    -0.3480 C.2     
   6 C6             2.1323    -2.2756    -0.1634 C.2     
   7 O7             3.2651    -2.7133    -0.1274 O.2     
   8 N8             1.0823    -3.1200    -0.1332 N.am    
   9 C9             2.7360     2.7550    -0.4134 C.3     
  10 C10            1.3069    -4.5657    -0.0568 C.3     
  11 S11           -2.1402    -6.4574     0.6760 S.3     
  12 C12           -1.8181    -6.1986    -0.9828 C.2     
  13 N13           -0.6847    -5.5811    -1.1309 N.2     
  14 C14           -0.0200    -5.2798    -0.0366 C.2     
  15 C15           -0.6265    -5.6650     1.1057 C.2     
  16 N16           -2.6456    -6.5910    -2.0191 N.3     
  17 C17           -3.8481    -7.2643    -1.5072 C.3     
  18 C18           -4.7617    -7.6274    -2.6807 C.3     
  19 O19           -4.0383    -8.4419    -3.6073 O.3     
  20 C20           -2.8613    -7.8169    -4.1264 C.3     
  21 C21           -1.9284    -7.4556    -2.9675 C.3     
  22 C22            0.3997    -6.2716     4.6671 C.ar    
  23 C23           -0.0891    -6.5091     3.4007 C.ar    
  24 C24           -0.1126    -5.4584     2.4738 C.ar    
  25 C25            0.3658    -4.2062     2.8821 C.ar    
  26 C26            0.8369    -4.0585     4.1687 C.ar    
  27 N27            0.8411    -5.0756     5.0104 N.ar    
  28 C28            1.3548    -2.7175     4.6211 C.3     
  29 C29            0.4251    -7.3908     5.6758 C.3     
  30 H30            3.9711     0.0908    -0.2620 H       
  31 H31            0.1779    -2.7705    -0.1620 H       
  32 H32            1.9130     3.4682    -0.4593 H       
  33 H33            3.3370     2.9504     0.4747 H       
  34 H34            3.3573     2.8594    -1.3028 H       
  35 H35            1.8811    -4.8905    -0.9245 H       
  36 H36            1.8595    -4.7999     0.8530 H       
  37 H37           -3.5592    -8.1715    -0.9765 H       
  38 H38           -4.3772    -6.5968    -0.8270 H       
  39 H39           -5.6274    -8.1773    -2.3114 H       
  40 H40           -5.0938    -6.7166    -3.1789 H       
  41 H41           -2.3525    -8.5038    -4.8027 H       
  42 H42           -3.1382    -6.9115    -4.6666 H       
  43 H43           -1.0562    -6.9278    -3.3533 H       
  44 H44           -1.6089    -8.3659    -2.4602 H       
  45 H45           -0.4481    -7.4901     3.1267 H       
  46 H46            0.3657    -3.3698     2.1989 H       
  47 H47            0.5363    -2.1364     5.0459 H       
  48 H48            2.1277    -2.8624     5.3759 H       
  49 H49            1.7750    -2.1839     3.7685 H       
  50 H50            1.3738    -7.9228     5.6044 H       
  51 H51            0.3143    -6.9786     6.6788 H       
  52 H52           -0.3944    -8.0806     5.4740 H       
@<TRIPOS>BOND
   1    1    2 1
   2    1    5 1
   3    2    3 2
   4    3    4 1
   5    3    6 1
   6    4    5 2
   7    4   30 1
   8    5    9 1
   9    6    7 2
  10    6    8 am
  11    8   10 1
  12    8   31 1
  13    9   32 1
  14    9   33 1
  15    9   34 1
  16   10   14 1
  17   10   35 1
  18   10   36 1
  19   11   12 1
  20   11   15 1
  21   12   13 2
  22   12   16 1
  23   13   14 1
  24   14   15 2
  25   15   24 1
  26   16   17 1
  27   16   21 1
  28   17   18 1
  29   17   37 1
  30   17   38 1
  31   18   19 1
  32   18   39 1
  33   18   40 1
  34   19   20 1
  35   20   21 1
  36   20   41 1
  37   20   42 1
  38   21   43 1
  39   21   44 1
  40   22   23 ar
  41   22   27 ar
  42   22   29 1
  43   23   24 ar
  44   23   45 1
  45   24   25 ar
  46   25   26 ar
  47   25   46 1
  48   26   27 ar
  49   26   28 1
  50   28   47 1
  51   28   48 1
  52   28   49 1
  53   29   50 1
  54   29   51 1
  55   29   52 1

#	End of record

