#	Name: ASD08830157
#	Creating user name:	WinNT
#	Creation time:	15. 06. 2019 21:19

#	Modifying user name:	WinNT
#	Modification time:	15. 06. 2019 21:19

#	Program:	/corina/corina34_cracker 3.40 0067  02.08.2006

@<TRIPOS>MOLECULE
ASD08830157
  52   54    0    0    0
SMALL
NO_CHARGES


@<TRIPOS>ATOM
   1 C1            -7.2373     1.2301     0.0511 C.ar    
   2 C2            -7.1608    -0.2395     0.0242 C.2     
   3 C3            -8.4247    -1.0602     0.0337 C.3     
   4 O4            -6.0808    -0.7899    -0.0057 O.2     
   5 C5            -8.4821     1.8676     0.0856 C.ar    
   6 C6            -7.3975     4.0031     0.1013 C.ar    
   7 C7            -6.1495     3.3803     0.0737 C.ar    
   8 C8            -8.5528     3.2454     0.1103 C.ar    
   9 C9            -6.0672     1.9929     0.0482 C.ar    
  10 C10           -4.9112     4.1981     0.0636 C.ar    
  11 C11           -3.6509     3.5919     0.0361 C.ar    
  12 C12           -2.5232     4.3855     0.0275 C.ar    
  13 N13           -2.6189     5.7014     0.0453 N.ar    
  14 C14           -3.7907     6.3179     0.0715 C.ar    
  15 C15           -4.9739     5.5919     0.0755 C.ar    
  16 N16           -3.8366     7.7105     0.0899 N.am    
  17 C17           -2.6958     8.4210     0.1912 C.2     
  18 C18           -2.7326     9.8955     0.0956 C.ar    
  19 O19           -1.6367     7.8492     0.3611 O.2     
  20 C20           -1.5529    10.6345     0.2000 C.ar    
  21 C21           -3.9465    10.5549    -0.1053 C.ar    
  22 C22           -3.9738    11.9314    -0.1935 C.ar    
  23 C23           -2.8015    12.6581    -0.0839 C.ar    
  24 C24           -1.5943    12.0104     0.1100 C.ar    
  25 C25           -2.8390    14.1614    -0.1823 C.3     
  26 C26           -3.7297    14.7232     0.9276 C.3     
  27 C27           -1.4219    14.7179    -0.0297 C.3     
  28 C28           -3.4032    14.5695    -1.5447 C.3     
  29 H29           -9.0258    -0.8117    -0.8410 H       
  30 H30           -8.1701    -2.1198     0.0105 H       
  31 H31           -8.9924    -0.8426     0.9384 H       
  32 H32           -9.3887     1.2807     0.0924 H       
  33 H33           -7.4607     5.0810     0.1215 H       
  34 H34           -9.5157     3.7338     0.1365 H       
  35 H35           -5.1030     1.5070     0.0266 H       
  36 H36           -3.5621     2.5156     0.0221 H       
  37 H37           -1.5474     3.9232     0.0063 H       
  38 H38           -5.9278     6.0978     0.0969 H       
  39 H39           -4.6895     8.1685     0.0299 H       
  40 H40           -0.6100    10.1301     0.3514 H       
  41 H41           -4.8621     9.9888    -0.1917 H       
  42 H42           -4.9123    12.4428    -0.3489 H       
  43 H43           -0.6829    12.5836     0.1951 H       
  44 H44           -3.3277    14.4325     1.8982 H       
  45 H45           -3.7568    15.8105     0.8564 H       
  46 H46           -4.7392    14.3267     0.8189 H       
  47 H47           -0.7873    14.3177    -0.8205 H       
  48 H48           -1.4490    15.8053    -0.1009 H       
  49 H49           -1.0200    14.4272     0.9408 H       
  50 H50           -4.4127    14.1730    -1.6533 H       
  51 H51           -3.4303    15.6568    -1.6158 H       
  52 H52           -2.7686    14.1693    -2.3354 H       
@<TRIPOS>BOND
   1    1    2 1
   2    1    5 ar
   3    1    9 ar
   4    2    3 1
   5    2    4 2
   6    3   29 1
   7    3   30 1
   8    3   31 1
   9    5    8 ar
  10    5   32 1
  11    6    7 ar
  12    6    8 ar
  13    6   33 1
  14    7    9 ar
  15    7   10 1
  16    8   34 1
  17    9   35 1
  18   10   11 ar
  19   10   15 ar
  20   11   12 ar
  21   11   36 1
  22   12   13 ar
  23   12   37 1
  24   13   14 ar
  25   14   15 ar
  26   14   16 1
  27   15   38 1
  28   16   17 am
  29   16   39 1
  30   17   18 1
  31   17   19 2
  32   18   20 ar
  33   18   21 ar
  34   20   24 ar
  35   20   40 1
  36   21   22 ar
  37   21   41 1
  38   22   23 ar
  39   22   42 1
  40   23   24 ar
  41   23   25 1
  42   24   43 1
  43   25   26 1
  44   25   27 1
  45   25   28 1
  46   26   44 1
  47   26   45 1
  48   26   46 1
  49   27   47 1
  50   27   48 1
  51   27   49 1
  52   28   50 1
  53   28   51 1
  54   28   52 1

#	End of record

