#	Name: ASD01915733
#	Creating user name:	WinNT
#	Creation time:	15. 06. 2019 20:06

#	Modifying user name:	WinNT
#	Modification time:	15. 06. 2019 20:06

#	Program:	/corina/corina34_cracker 3.40 0067  02.08.2006

@<TRIPOS>MOLECULE
ASD01915733
  44   47    0    0    0
SMALL
NO_CHARGES


@<TRIPOS>ATOM
   1 C1            -0.0042     1.4684     0.2346 C.2     
   2 N2             0.0661     0.1189    -0.0301 N.pl3   
   3 C3            -1.1431    -0.6639    -0.3126 C.3     
   4 C4            -2.3281    -0.0486     0.4299 C.3     
   5 N5            -2.4044     1.3988     0.2638 N.am    
   6 C6            -1.2934     2.1742     0.2859 C.2     
   7 C7             1.2763     1.9057     0.4253 C.2     
   8 C8             2.0758     0.7647     0.2733 C.2     
   9 N9             1.2863    -0.2506     0.0108 N.2     
  10 C10            3.5774     0.7128     0.3901 C.3     
  11 O11            4.0778     2.0187     0.6836 O.3     
  12 C12            5.4241     2.1470     0.8220 C.ar    
  13 O13           -1.3589     3.3874     0.3455 O.2     
  14 C14            5.9776     3.3865     1.1073 C.ar    
  15 C15            6.2450     1.0376     0.6837 C.ar    
  16 C16            7.6130     1.1694     0.8245 C.ar    
  17 C17            8.1646     2.4082     1.1040 C.ar    
  18 C18            7.3459     3.5155     1.2476 C.ar    
  19 C19           -3.6541     2.0003     0.0771 C.ar    
  20 C20           -4.5855     2.0028     1.1072 C.ar    
  21 C21           -3.9626     2.6005    -1.1366 C.ar    
  22 C22           -5.1965     3.1936    -1.3187 C.ar    
  23 C23           -6.1256     3.1903    -0.2920 C.ar    
  24 C24           -5.8182     2.5969     0.9209 C.ar    
  25 F25           -7.3319     3.7714    -0.4720 F       
  26 F26            9.5024     2.5356     1.2424 F       
  27 C27           -1.4204    -0.6503    -1.8172 C.3     
  28 H28           -0.9979    -1.6911     0.0219 H       
  29 H29           -3.2490    -0.4952     0.0550 H       
  30 H30           -2.2353    -0.2768     1.4917 H       
  31 H31            1.6016     2.9118     0.6451 H       
  32 H32            3.8560     0.0283     1.1913 H       
  33 H33            4.0031     0.3635    -0.5506 H       
  34 H34            5.3392     4.2504     1.2193 H       
  35 H35            5.8150     0.0710     0.4663 H       
  36 H36            8.2524     0.3058     0.7169 H       
  37 H37            7.7774     4.4812     1.4656 H       
  38 H38           -4.3461     1.5401     2.0533 H       
  39 H39           -3.2379     2.6039    -1.9374 H       
  40 H40           -5.4368     3.6605    -2.2625 H       
  41 H41           -6.5444     2.5952     1.7202 H       
  42 H42           -0.5734    -1.0866    -2.3466 H       
  43 H43           -2.3183    -1.2317    -2.0264 H       
  44 H44           -1.5669     0.3772    -2.1503 H       
@<TRIPOS>BOND
   1    1    2 1
   2    1    7 2
   3    1    6 1
   4    2    3 1
   5    2    9 1
   6    3    4 1
   7    3   27 1
   8    3   28 1
   9    4    5 1
  10    4   29 1
  11    4   30 1
  12    5    6 am
  13    5   19 1
  14    6   13 2
  15    7    8 1
  16    7   31 1
  17    8    9 2
  18    8   10 1
  19   10   11 1
  20   10   32 1
  21   10   33 1
  22   11   12 1
  23   12   14 ar
  24   12   15 ar
  25   14   18 ar
  26   14   34 1
  27   15   16 ar
  28   15   35 1
  29   16   17 ar
  30   16   36 1
  31   17   18 ar
  32   17   26 1
  33   18   37 1
  34   19   20 ar
  35   19   21 ar
  36   20   24 ar
  37   20   38 1
  38   21   22 ar
  39   21   39 1
  40   22   23 ar
  41   22   40 1
  42   23   24 ar
  43   23   25 1
  44   24   41 1
  45   27   42 1
  46   27   43 1
  47   27   44 1

#	End of record

