#	Name: ASD04910055
#	Creating user name:	WinNT
#	Creation time:	15. 06. 2019 20:55

#	Modifying user name:	WinNT
#	Modification time:	15. 06. 2019 20:55

#	Program:	/corina/corina34_cracker 3.40 0067  02.08.2006

@<TRIPOS>MOLECULE
ASD04910055
  27   28    0    0    0
SMALL
NO_CHARGES


@<TRIPOS>ATOM
   1 C1            -0.0167     1.3838     0.0097 C.ar    
   2 C2             0.0021    -0.0041     0.0020 C.ar    
   3 C3            -1.1923    -0.7119     0.0101 C.ar    
   4 C4            -2.3952    -0.0336     0.0257 C.ar    
   5 C5            -2.4109     1.3492     0.0328 C.ar    
   6 C6            -1.2230     2.0567     0.0306 C.ar    
   7 N7             1.2251    -0.6900    -0.0143 N.pl3   
   8 C8             1.5980    -1.7113     0.8210 C.2     
   9 C9             2.8425    -2.0763     0.4591 C.2     
  10 N10            3.2240    -1.3028    -0.5681 N.2     
  11 C11            2.2618    -0.4721    -0.8645 C.2     
  12 C12            3.6650    -3.1655     1.0982 C.3     
  13 F13            3.4160    -4.3795     0.4491 F       
  14 F14            5.0233    -2.8487     0.9897 F       
  15 F15            3.3191    -3.2793     2.4490 F       
  16 C16            1.2775     2.1557     0.0014 C.3     
  17 N17           -3.7018     2.0733     0.0486 N.pl3   
  18 O18           -4.7489     1.4512     0.0553 O.2     
  19 O19           -3.7170     3.2912     0.0549 O.2     
  20 H20           -1.1807    -1.7918     0.0038 H       
  21 H21           -3.3246    -0.5837     0.0320 H       
  22 H22           -1.2383     3.1366     0.0365 H       
  23 H23            1.0071    -2.1403     1.6167 H       
  24 H24            2.2884     0.2692    -1.6494 H       
  25 H25            1.5797     2.3473    -1.0281 H       
  26 H26            1.1386     3.1034     0.5217 H       
  27 H27            2.0503     1.5747     0.5048 H       
@<TRIPOS>BOND
   1    1    2 ar
   2    1   16 1
   3    1    6 ar
   4    2    3 ar
   5    2    7 1
   6    3    4 ar
   7    3   20 1
   8    4    5 ar
   9    4   21 1
  10    5    6 ar
  11    5   17 1
  12    6   22 1
  13    7    8 1
  14    7   11 1
  15    8    9 2
  16    8   23 1
  17    9   10 1
  18    9   12 1
  19   10   11 2
  20   11   24 1
  21   12   13 1
  22   12   14 1
  23   12   15 1
  24   16   25 1
  25   16   26 1
  26   16   27 1
  27   17   18 2
  28   17   19 2

#	End of record

