#	Name: ASD06600058
#	Creating user name:	WinNT
#	Creation time:	15. 06. 2019 21:07

#	Modifying user name:	WinNT
#	Modification time:	15. 06. 2019 21:07

#	Program:	/corina/corina34_cracker 3.40 0067  02.08.2006

@<TRIPOS>MOLECULE
ASD06600058
 255  255    0    0    0
SMALL
NO_CHARGES


@<TRIPOS>ATOM
   1 C1            -1.4411     3.7575     0.2626 C.2     
   2 O2            -1.1586     2.6105    -0.0119 O.2     
   3 N3             0.9343     4.1199     0.6244 N.3     
   4 C4            -0.3521     4.7908     0.3946 C.3     
   5 C5            -0.2741     5.6167    -0.8910 C.3     
   6 C6             0.7442     6.7444    -0.7118 C.3     
   7 C7             0.8222     7.5702    -1.9974 C.3     
   8 N8             1.7973     8.6501    -1.8257 N.pl3   
   9 C9             2.0390     9.5278    -2.8553 C.2     
  10 N10            1.5021     9.3243    -4.0238 N.2     
  11 N11            2.8516    10.6262    -2.6503 N.am    
  12 C12           -5.0829     3.7874    -0.0527 C.2     
  13 O13           -5.1173     4.9924    -0.1857 O.2     
  14 N14           -2.7294     4.1092     0.4440 N.am    
  15 C15           -3.7885     3.1060     0.3097 C.3     
  16 C16           -3.9576     2.3622     1.6360 C.3     
  17 C17           -2.6854     1.5693     1.9419 C.3     
  18 C18           -2.8520     0.8367     3.2483 C.2     
  19 O19           -3.8864     0.9388     3.8731 O.2     
  20 N20           -1.8514     0.0681     3.7222 N.am    
  21 C21           -8.6197     2.8667    -0.1350 C.2     
  22 O22           -8.4148     1.8092     0.4224 O.2     
  23 N23           -6.2023     3.0577    -0.2290 N.am    
  24 C24           -7.4606     3.7201    -0.5813 C.3     
  25 C25           -7.5262     3.9172    -2.0971 C.3     
  26 C26          -12.2185     2.7600    -0.7673 C.2     
  27 O27          -12.1453     3.5928    -1.6460 O.2     
  28 N28           -9.8839     3.2785    -0.3554 N.am    
  29 C29          -11.0107     2.4489     0.0785 C.3     
  30 C30          -11.3261     2.7441     1.5462 C.3     
  31 C31          -10.1457     2.3119     2.4184 C.3     
  32 C32          -10.4564     2.6027     3.8641 C.2     
  33 O33          -11.5174     3.1062     4.1670 O.2     
  34 N34           -9.5552     2.3034     4.8205 N.am    
  35 C35          -15.8060     2.0776    -0.6013 C.2     
  36 O36          -15.7252     1.6285     0.5224 O.2     
  37 N37          -13.3801     2.1128    -0.5473 N.am    
  38 C38          -14.5543     2.4152    -1.3695 C.3     
  39 C39          -14.5048     1.5855    -2.6541 C.3     
  40 C40          -13.3007     2.0168    -3.4938 C.3     
  41 C41          -13.2513     1.1871    -4.7783 C.3     
  42 N42          -12.0983     1.6001    -5.5823 N.pl3   
  43 C43          -11.8478     0.9903    -6.7888 C.2     
  44 N44          -12.6361     0.0448    -7.2173 N.2     
  45 N45          -10.7658     1.3779    -7.5433 N.pl3   
  46 C46          -19.3527     1.6606    -1.3822 C.2     
  47 O47          -19.2572     2.0059    -2.5409 O.2     
  48 N48          -17.0152     2.2746    -1.1629 N.am    
  49 C49          -18.2320     1.9463    -0.4161 C.3     
  50 C50          -18.6169     3.1278     0.4765 C.3     
  51 C51          -17.5059     3.3784     1.4981 C.3     
  52 C52          -17.8908     4.5599     2.3907 C.3     
  53 N53          -16.8270     4.7998     3.3690 N.pl3   
  54 C54          -16.9512     5.8187     4.2837 C.2     
  55 N55          -18.0155     6.5712     4.2805 N.2     
  56 N56          -15.9528     6.0439     5.2017 N.pl3   
  57 C57          -22.2535     2.0876    -2.2197 C.2     
  58 O58          -21.7191     3.1315    -1.9103 O.2     
  59 N59          -20.4611     1.0214    -0.9587 N.am    
  60 C60          -21.6685     0.7767    -1.7611 C.3     
  61 C61          -22.6781     0.0393    -0.8564 C.3     
  62 C62          -22.2005     0.4109     0.5723 C.3     
  63 C63          -20.6611     0.4463     0.3839 C.3     
  64 C64          -25.4135     3.2026    -3.6806 C.2     
  65 O65          -25.9375     2.1221    -3.5109 O.2     
  66 N66          -23.3705     2.1000    -2.9737 N.am    
  67 C67          -23.9392     3.3744    -3.4196 C.3     
  68 C68          -23.2422     3.8216    -4.7060 C.3     
  69 C69          -21.7698     4.1161    -4.4124 C.3     
  70 C70          -21.0833     4.5566    -5.6796 C.2     
  71 O71          -21.7099     4.6280    -6.7155 O.2     
  72 N72          -19.7729     4.8713    -5.6617 N.am    
  73 C73          -28.0409     5.1187    -5.3504 C.2     
  74 O74          -27.2484     5.9178    -5.8023 O.2     
  75 N75          -26.1496     4.2497    -4.1026 N.am    
  76 C76          -27.5828     4.0828    -4.3564 C.3     
  77 C77          -28.3559     4.2549    -3.0474 C.3     
  78 C78          -27.9818     3.1283    -2.0822 C.3     
  79 C79          -28.7550     3.3004    -0.7732 C.3     
  80 N80          -28.3968     2.2216     0.1510 N.pl3   
  81 C81          -28.9698     2.1674     1.3995 C.2     
  82 N82          -29.8318     3.0759     1.7610 N.2     
  83 N83          -28.6337     1.1551     2.2669 N.pl3   
  84 C84          -31.2510     6.4183    -6.5207 C.2     
  85 O85          -31.8687     5.8174    -5.6673 O.2     
  86 N86          -29.3315     5.1572    -5.7371 N.am    
  87 C87          -29.7769     6.1642    -6.7034 C.3     
  88 C88          -29.5189     5.6574    -8.1238 C.3     
  89 C89          -28.0121     5.5181    -8.3498 C.3     
  90 C90          -27.7581     5.0189    -9.7488 C.2     
  91 O91          -28.6904     4.7964   -10.4919 O.2     
  92 N92          -26.4948     4.8196   -10.1742 N.am    
  93 C93          -34.1023     6.5382    -7.9076 C.2     
  94 O94          -33.5250     5.6904    -8.5461 O.2     
  95 N95          -31.8829     7.3134    -7.3056 N.am    
  96 C96          -33.3160     7.5604    -7.1279 C.3     
  97 C97          -33.6585     8.9627    -7.6351 C.3     
  98 C98          -32.9568    10.0059    -6.7631 C.3     
  99 C99          -33.2994    11.4081    -7.2703 C.3     
 100 C100         -32.5977    12.4513    -6.3984 C.3     
 101 N101         -32.9266    13.7977    -6.8853 N.3     
 102 O102         -35.4442     6.5697    -7.8927 O.3     
 103 C103           3.3077    10.9055    -1.4132 C.2     
 104 O104           3.0732    10.1487    -0.4954 O.2     
 105 C105          12.5484    21.6008    10.8916 C.3     
 106 C106          11.7348    20.3287    10.6453 C.3     
 107 C107          11.3428    20.2519     9.1684 C.3     
 108 C108          10.5291    18.9798     8.9222 C.3     
 109 C109          10.1372    18.9030     7.4452 C.3     
 110 C110           9.3235    17.6309     7.1990 C.3     
 111 C111           8.9316    17.5541     5.7220 C.3     
 112 C112           8.1179    16.2820     5.4758 C.3     
 113 C113           7.7260    16.2052     3.9988 C.3     
 114 C114           6.9123    14.9331     3.7526 C.3     
 115 C115           6.5204    14.8563     2.2757 C.3     
 116 C116           5.7067    13.5842     2.0294 C.3     
 117 C117           5.3147    13.5074     0.5525 C.3     
 118 C118           4.5011    12.2353     0.3062 C.3     
 119 C119           4.1091    12.1585    -1.1707 C.3     
 120 H120           1.1633     3.5047    -0.1419 H       
 121 H121           1.6701     4.7925     0.7805 H       
 122 H122          -0.5746     5.4478     1.2355 H       
 123 H123           0.0353     4.9756    -1.7165 H       
 124 H124          -1.2534     6.0427    -1.1092 H       
 125 H125           0.4348     7.3855     0.1137 H       
 126 H126           1.7235     6.3184    -0.4936 H       
 127 H127           1.1316     6.9291    -2.8228 H       
 128 H128          -0.1570     7.9963    -2.2155 H       
 129 H129           2.2724     8.7455    -0.9854 H       
 130 H130           1.6129     9.9807    -4.7294 H       
 131 H131           3.0940    11.1963    -3.3968 H       
 132 H132          -2.9554     5.0267     0.6635 H       
 133 H133          -3.5199     2.3966    -0.4730 H       
 134 H134          -4.1387     3.0810     2.4352 H       
 135 H135          -4.8034     1.6785     1.5639 H       
 136 H136          -2.5044     0.8505     1.1427 H       
 137 H137          -1.8396     2.2531     2.0140 H       
 138 H138          -1.0241    -0.0135     3.2224 H       
 139 H139          -1.9586    -0.4034     4.5631 H       
 140 H140          -6.1747     2.0940    -0.1226 H       
 141 H141          -7.5116     4.6899    -0.0863 H       
 142 H142          -8.4624     4.4101    -2.3592 H       
 143 H143          -6.6878     4.5345    -2.4199 H       
 144 H144          -7.4751     2.9474    -2.5921 H       
 145 H145         -10.0477     4.1243    -0.8012 H       
 146 H146         -10.7507     1.3962    -0.0326 H       
 147 H147         -11.4992     3.8128     1.6727 H       
 148 H148         -12.2186     2.1937     1.8439 H       
 149 H149          -9.9726     1.2432     2.2919 H       
 150 H150          -9.2532     2.8623     2.1208 H       
 151 H151          -8.7066     1.9007     4.5783 H       
 152 H152          -9.7551     2.4906     5.7510 H       
 153 H153         -13.4386     1.4467     0.1554 H       
 154 H154         -14.5578     3.4756    -1.6219 H       
 155 H155         -14.4118     0.5294    -2.4011 H       
 156 H156         -15.4204     1.7433    -3.2240 H       
 157 H157         -13.3938     3.0730    -3.7468 H       
 158 H158         -12.3851     1.8590    -2.9238 H       
 159 H159         -13.1582     0.1310    -4.5253 H       
 160 H160         -14.1669     1.3449    -5.3482 H       
 161 H161         -11.5117     2.3037    -5.2634 H       
 162 H162         -12.4593    -0.3854    -8.0685 H       
 163 H163         -10.1792     2.0815    -7.2244 H       
 164 H164         -10.5891     0.9477    -8.3945 H       
 165 H165         -17.0798     2.6338    -2.0617 H       
 166 H166         -18.0525     1.0670     0.2025 H       
 167 H167         -18.7532     4.0179    -0.1377 H       
 168 H168         -19.5464     2.9010     0.9988 H       
 169 H169         -17.3696     2.4883     2.1123 H       
 170 H170         -16.5765     3.6053     0.9759 H       
 171 H171         -18.0271     5.4500     1.7765 H       
 172 H172         -18.8202     4.3331     2.9130 H       
 173 H173         -16.0350     4.2399     3.3713 H       
 174 H174         -18.1031     7.2901     4.9258 H       
 175 H175         -15.1608     5.4839     5.2040 H       
 176 H176         -16.0405     6.7627     5.8470 H       
 177 H177         -21.4210     0.1591    -2.6244 H       
 178 H178         -23.6905     0.4035    -1.0315 H       
 179 H179         -22.6220    -1.0378    -1.0138 H       
 180 H180         -22.5835     1.3867     0.8709 H       
 181 H181         -22.4868    -0.3562     1.2918 H       
 182 H182         -20.2476    -0.5612     0.4305 H       
 183 H183         -20.2012     1.0814     1.1411 H       
 184 H184         -23.7980     1.2651    -3.2211 H       
 185 H185         -23.7926     4.1281    -2.6460 H       
 186 H186         -23.3127     3.0297    -5.4517 H       
 187 H187         -23.7241     4.7224    -5.0861 H       
 188 H188         -21.6993     4.9081    -3.6668 H       
 189 H189         -21.2879     3.2153    -4.0324 H       
 190 H190         -19.2717     4.8142    -4.8331 H       
 191 H191         -19.3310     5.1548    -6.4773 H       
 192 H192         -25.7305     5.1139    -4.2384 H       
 193 H193         -27.7669     3.0867    -4.7588 H       
 194 H194         -28.1029     5.2159    -2.5996 H       
 195 H195         -29.4263     4.2191    -3.2502 H       
 196 H196         -28.2349     2.1672    -2.5300 H       
 197 H197         -26.9115     3.1640    -1.8794 H       
 198 H198         -28.5020     4.2614    -0.3254 H       
 199 H199         -29.8254     3.2646    -0.9760 H       
 200 H200         -27.7553     1.5455    -0.1180 H       
 201 H201         -30.2361     3.0377     2.6419 H       
 202 H202         -27.9922     0.4790     1.9979 H       
 203 H203         -29.0380     1.1169     3.1478 H       
 204 H204         -29.9653     4.5181    -5.3757 H       
 205 H205         -29.2258     7.0908    -6.5426 H       
 206 H206         -29.9973     4.6869    -8.2557 H       
 207 H207         -29.9302     6.3660    -8.8427 H       
 208 H208         -27.5337     6.4886    -8.2179 H       
 209 H209         -27.6008     4.8095    -7.6309 H       
 210 H210         -25.7492     4.9976    -9.5799 H       
 211 H211         -26.3313     4.4983   -11.0747 H       
 212 H212         -31.3889     7.7940    -7.9881 H       
 213 H213         -33.5694     7.4845    -6.0705 H       
 214 H214         -33.3241     9.0675    -8.6672 H       
 215 H215         -34.7369     9.1136    -7.5855 H       
 216 H216         -33.2913     9.9010    -5.7310 H       
 217 H217         -31.8785     9.8549    -6.8128 H       
 218 H218         -32.9649    11.5130    -8.3024 H       
 219 H219         -34.3777    11.5591    -7.2207 H       
 220 H220         -32.9321    12.3465    -5.3663 H       
 221 H221         -31.5193    12.3004    -6.4480 H       
 222 H222         -32.4747    14.5051    -6.3254 H       
 223 H223         -32.6849    13.8988    -7.8597 H       
 224 H224         -35.9049     5.8935    -8.4081 H       
 225 H225          13.4486    21.5809    10.2773 H       
 226 H226          11.9486    22.4723    10.6290 H       
 227 H227          12.8276    21.6555    11.9438 H       
 228 H228          12.3345    19.4573    10.9079 H       
 229 H229          10.8345    20.3486    11.2596 H       
 230 H230          10.7430    21.1234     8.9059 H       
 231 H231          12.2430    20.2320     8.5541 H       
 232 H232          11.1289    18.1084     9.1847 H       
 233 H233           9.6289    18.9997     9.5364 H       
 234 H234           9.5374    19.7745     7.1827 H       
 235 H235          11.0374    18.8831     6.8310 H       
 236 H236           9.9233    16.7595     7.4615 H       
 237 H237           8.4233    17.6508     7.8132 H       
 238 H238           8.3318    18.4255     5.4595 H       
 239 H239           9.8318    17.5342     5.1078 H       
 240 H240           8.7177    15.4105     5.7383 H       
 241 H241           7.2177    16.3019     6.0900 H       
 242 H242           7.1262    17.0766     3.7363 H       
 243 H243           8.6262    16.1853     3.3846 H       
 244 H244           7.5121    14.0616     4.0151 H       
 245 H245           6.0121    14.9530     4.3669 H       
 246 H246           5.9206    15.7277     2.0131 H       
 247 H247           7.4206    14.8364     1.6614 H       
 248 H248           6.3065    12.7127     2.2920 H       
 249 H249           4.8065    13.6041     2.6437 H       
 250 H250           4.7150    14.3788     0.2899 H       
 251 H251           6.2150    13.4875    -0.0618 H       
 252 H252           5.1009    11.3638     0.5688 H       
 253 H253           3.6009    12.2552     0.9205 H       
 254 H254           5.0094    12.1386    -1.7850 H       
 255 H255           3.5093    13.0299    -1.4332 H       
@<TRIPOS>BOND
   1    1    2 2
   2    1    4 1
   3    1   14 am
   4    3    4 1
   5    3  120 1
   6    3  121 1
   7    4    5 1
   8    4  122 1
   9    5    6 1
  10    5  123 1
  11    5  124 1
  12    6    7 1
  13    6  125 1
  14    6  126 1
  15    7    8 1
  16    7  127 1
  17    7  128 1
  18    8    9 1
  19    8  129 1
  20    9   10 2
  21    9   11 1
  22   10  130 1
  23   11  103 am
  24   11  131 1
  25   12   13 2
  26   12   15 1
  27   12   23 am
  28   14   15 1
  29   14  132 1
  30   15   16 1
  31   15  133 1
  32   16   17 1
  33   16  134 1
  34   16  135 1
  35   17   18 1
  36   17  136 1
  37   17  137 1
  38   18   19 2
  39   18   20 am
  40   20  138 1
  41   20  139 1
  42   21   22 2
  43   21   24 1
  44   21   28 am
  45   23   24 1
  46   23  140 1
  47   24   25 1
  48   24  141 1
  49   25  142 1
  50   25  143 1
  51   25  144 1
  52   26   27 2
  53   26   29 1
  54   26   37 am
  55   28   29 1
  56   28  145 1
  57   29   30 1
  58   29  146 1
  59   30   31 1
  60   30  147 1
  61   30  148 1
  62   31   32 1
  63   31  149 1
  64   31  150 1
  65   32   33 2
  66   32   34 am
  67   34  151 1
  68   34  152 1
  69   35   36 2
  70   35   38 1
  71   35   48 am
  72   37   38 1
  73   37  153 1
  74   38   39 1
  75   38  154 1
  76   39   40 1
  77   39  155 1
  78   39  156 1
  79   40   41 1
  80   40  157 1
  81   40  158 1
  82   41   42 1
  83   41  159 1
  84   41  160 1
  85   42   43 1
  86   42  161 1
  87   43   44 2
  88   43   45 1
  89   44  162 1
  90   45  163 1
  91   45  164 1
  92   46   47 2
  93   46   49 1
  94   46   59 am
  95   48   49 1
  96   48  165 1
  97   49   50 1
  98   49  166 1
  99   50   51 1
 100   50  167 1
 101   50  168 1
 102   51   52 1
 103   51  169 1
 104   51  170 1
 105   52   53 1
 106   52  171 1
 107   52  172 1
 108   53   54 1
 109   53  173 1
 110   54   55 2
 111   54   56 1
 112   55  174 1
 113   56  175 1
 114   56  176 1
 115   57   58 2
 116   57   66 am
 117   57   60 1
 118   59   60 1
 119   59   63 1
 120   60   61 1
 121   60  177 1
 122   61   62 1
 123   61  178 1
 124   61  179 1
 125   62   63 1
 126   62  180 1
 127   62  181 1
 128   63  182 1
 129   63  183 1
 130   64   65 2
 131   64   67 1
 132   64   75 am
 133   66   67 1
 134   66  184 1
 135   67   68 1
 136   67  185 1
 137   68   69 1
 138   68  186 1
 139   68  187 1
 140   69   70 1
 141   69  188 1
 142   69  189 1
 143   70   71 2
 144   70   72 am
 145   72  190 1
 146   72  191 1
 147   73   74 2
 148   73   76 1
 149   73   86 am
 150   75   76 1
 151   75  192 1
 152   76   77 1
 153   76  193 1
 154   77   78 1
 155   77  194 1
 156   77  195 1
 157   78   79 1
 158   78  196 1
 159   78  197 1
 160   79   80 1
 161   79  198 1
 162   79  199 1
 163   80   81 1
 164   80  200 1
 165   81   82 2
 166   81   83 1
 167   82  201 1
 168   83  202 1
 169   83  203 1
 170   84   85 2
 171   84   87 1
 172   84   95 am
 173   86   87 1
 174   86  204 1
 175   87   88 1
 176   87  205 1
 177   88   89 1
 178   88  206 1
 179   88  207 1
 180   89   90 1
 181   89  208 1
 182   89  209 1
 183   90   91 2
 184   90   92 am
 185   92  210 1
 186   92  211 1
 187   93   94 2
 188   93   96 1
 189   93  102 1
 190   95   96 1
 191   95  212 1
 192   96   97 1
 193   96  213 1
 194   97   98 1
 195   97  214 1
 196   97  215 1
 197   98   99 1
 198   98  216 1
 199   98  217 1
 200   99  100 1
 201   99  218 1
 202   99  219 1
 203  100  101 1
 204  100  220 1
 205  100  221 1
 206  101  222 1
 207  101  223 1
 208  102  224 1
 209  103  104 2
 210  103  119 1
 211  105  106 1
 212  105  225 1
 213  105  226 1
 214  105  227 1
 215  106  107 1
 216  106  228 1
 217  106  229 1
 218  107  108 1
 219  107  230 1
 220  107  231 1
 221  108  109 1
 222  108  232 1
 223  108  233 1
 224  109  110 1
 225  109  234 1
 226  109  235 1
 227  110  111 1
 228  110  236 1
 229  110  237 1
 230  111  112 1
 231  111  238 1
 232  111  239 1
 233  112  113 1
 234  112  240 1
 235  112  241 1
 236  113  114 1
 237  113  242 1
 238  113  243 1
 239  114  115 1
 240  114  244 1
 241  114  245 1
 242  115  116 1
 243  115  246 1
 244  115  247 1
 245  116  117 1
 246  116  248 1
 247  116  249 1
 248  117  118 1
 249  117  250 1
 250  117  251 1
 251  118  119 1
 252  118  252 1
 253  118  253 1
 254  119  254 1
 255  119  255 1

#	End of record

