#	Name: ASD00431165
#	Creating user name:	WinNT
#	Creation time:	15. 06. 2019 18:35

#	Modifying user name:	WinNT
#	Modification time:	15. 06. 2019 18:35

#	Program:	/corina/corina34_cracker 3.40 0067  02.08.2006

@<TRIPOS>MOLECULE
ASD00431165
  50   52    0    0    0
SMALL
NO_CHARGES


@<TRIPOS>ATOM
   1 N1             0.4810     1.3155    -0.0711 N.am    
   2 C2             0.4917    -0.0323    -0.0682 C.2     
   3 O3             1.5460    -0.6317     0.0180 O.2     
   4 N4            -0.6664    -0.7155    -0.1607 N.am    
   5 C5            -0.6548    -2.1805    -0.1575 C.3     
   6 C6             1.7398     2.0581     0.0295 C.3     
   7 C7             2.3573     2.2061    -1.3625 C.3     
   8 O8             0.4299     4.2202     0.3302 O.3     
   9 N9             0.4790     5.2593     0.9464 N.2     
  10 C10            1.5434     5.3097     1.7141 C.2     
  11 C11            2.2366     4.0814     1.5075 C.2     
  12 C12            1.4725     3.4237     0.6082 C.2     
  13 S13            3.3775     6.4566     3.6284 S.3     
  14 C14            2.9434     8.0097     4.1954 C.2     
  15 N15            1.8349     8.3976     3.6435 N.2     
  16 C16            1.2693     7.5721     2.7898 C.2     
  17 C17            1.9413     6.4144     2.6088 C.2     
  18 O18            3.6550     8.7323     5.0928 O.3     
  19 C19            3.2358     9.9953     5.3714 C.ar    
  20 C20            2.0344    10.1969     6.0351 C.ar    
  21 C21            1.6088    11.4799     6.3185 C.ar    
  22 C22            2.3827    12.5669     5.9395 C.ar    
  23 C23            3.5838    12.3655     5.2755 C.ar    
  24 C24            4.0122    11.0823     4.9971 C.ar    
  25 O25            1.9637    13.8300     6.2186 O.3     
  26 C26            2.8470    14.8982     5.8710 C.3     
  27 C27            2.0458    16.1924     5.7154 C.3     
  28 C28            3.8923    15.0750     6.9742 C.3     
  29 Cl29          -0.2144     7.9388     1.9665 Cl      
  30 H30           -0.3598     1.7937    -0.1438 H       
  31 H31           -1.5075    -0.2373    -0.2295 H       
  32 H32           -1.6762    -2.5521    -0.2395 H       
  33 H33           -0.0681    -2.5410    -1.0024 H       
  34 H34           -0.2115    -2.5383     0.7717 H       
  35 H35            2.4298     1.5176     0.6775 H       
  36 H36            1.6673     2.7466    -2.0104 H       
  37 H37            3.2939     2.7587    -1.2876 H       
  38 H38            2.5506     1.2184    -1.7810 H       
  39 H39            3.1588     3.7529     1.9637 H       
  40 H40            1.4316     9.3506     6.3299 H       
  41 H41            0.6733    11.6369     6.8348 H       
  42 H42            4.1861    13.2119     4.9802 H       
  43 H43            4.9495    10.9253     4.4840 H       
  44 H44            3.3468    14.6651     4.9309 H       
  45 H45            1.5460    16.4255     6.6556 H       
  46 H46            2.7196    17.0071     5.4503 H       
  47 H47            1.3011    16.0664     4.9295 H       
  48 H48            3.3925    15.3082     7.9144 H       
  49 H49            4.4631    14.1530     7.0850 H       
  50 H50            4.5661    15.8898     6.7091 H       
@<TRIPOS>BOND
   1    1    2 am
   2    1    6 1
   3    1   30 1
   4    2    3 2
   5    2    4 am
   6    4    5 1
   7    4   31 1
   8    5   32 1
   9    5   33 1
  10    5   34 1
  11    6    7 1
  12    6   12 1
  13    6   35 1
  14    7   36 1
  15    7   37 1
  16    7   38 1
  17    8    9 1
  18    8   12 1
  19    9   10 2
  20   10   11 1
  21   10   17 1
  22   11   12 2
  23   11   39 1
  24   13   14 1
  25   13   17 1
  26   14   15 2
  27   14   18 1
  28   15   16 1
  29   16   17 2
  30   16   29 1
  31   18   19 1
  32   19   20 ar
  33   19   24 ar
  34   20   21 ar
  35   20   40 1
  36   21   22 ar
  37   21   41 1
  38   22   23 ar
  39   22   25 1
  40   23   24 ar
  41   23   42 1
  42   24   43 1
  43   25   26 1
  44   26   27 1
  45   26   28 1
  46   26   44 1
  47   27   45 1
  48   27   46 1
  49   27   47 1
  50   28   48 1
  51   28   49 1
  52   28   50 1

#	End of record

