#	Name: ASD07130016
#	Creating user name:	WinNT
#	Creation time:	15. 06. 2019 21:09

#	Modifying user name:	WinNT
#	Modification time:	15. 06. 2019 21:09

#	Program:	/corina/corina34_cracker 3.40 0067  02.08.2006

@<TRIPOS>MOLECULE
ASD07130016
  32   34    0    0    0
SMALL
NO_CHARGES


@<TRIPOS>ATOM
   1 C1            -0.0168     1.4662     0.0621 C.2     
   2 C2             1.2450    -0.6573    -0.0676 C.ar    
   3 O3             2.3851     0.0661    -0.0706 O.3     
   4 C4             2.3839     1.4088    -0.0132 C.2     
   5 C5             1.2336     2.1365     0.0530 C.2     
   6 C6             0.0020    -0.0040    -0.0017 C.ar    
   7 C7            -1.1858    -0.7466     0.0029 C.ar    
   8 C8            -1.1283    -2.1261    -0.0578 C.ar    
   9 C9             0.1010    -2.7730    -0.1225 C.ar    
  10 C10            1.2836    -2.0453    -0.1271 C.ar    
  11 C11            3.6750     2.1210    -0.0211 C.ar    
  12 C12            4.7098     1.7058     0.8221 C.ar    
  13 C13            5.9144     2.3738     0.8109 C.ar    
  14 C14            6.1018     3.4588    -0.0367 C.ar    
  15 C15            5.0761     3.8750    -0.8765 C.ar    
  16 C16            3.8699     3.2097    -0.8760 C.ar    
  17 O17           -2.3863    -0.1149     0.0669 O.3     
  18 O18            0.1453    -4.1296    -0.1813 O.3     
  19 O19            2.4807    -2.6913    -0.1903 O.3     
  20 O20           -1.0673     2.0847     0.1255 O.2     
  21 O21            1.2839     3.4953     0.1096 O.3     
  22 O22            7.2909     4.1146    -0.0440 O.3     
  23 H23           -2.0409    -2.7036    -0.0545 H       
  24 H24            4.5649     0.8628     1.4815 H       
  25 H25            6.7143     2.0539     1.4623 H       
  26 H26            5.2261     4.7188    -1.5337 H       
  27 H27            3.0746     3.5313    -1.5320 H       
  28 H28           -2.7611     0.1060    -0.7967 H       
  29 H29            0.1314    -4.4850    -1.0805 H       
  30 H30            2.8000    -2.8405    -1.0908 H       
  31 H31            0.4160     3.9195     0.1538 H       
  32 H32            7.9312     3.7609    -0.6765 H       
@<TRIPOS>BOND
   1    1    6 1
   2    1    5 1
   3    1   20 2
   4    2    3 1
   5    2    6 ar
   6    2   10 ar
   7    3    4 1
   8    4    5 2
   9    4   11 1
  10    5   21 1
  11    6    7 ar
  12    7    8 ar
  13    7   17 1
  14    8    9 ar
  15    8   23 1
  16    9   10 ar
  17    9   18 1
  18   10   19 1
  19   11   12 ar
  20   11   16 ar
  21   12   13 ar
  22   12   24 1
  23   13   14 ar
  24   13   25 1
  25   14   15 ar
  26   14   22 1
  27   15   16 ar
  28   15   26 1
  29   16   27 1
  30   17   28 1
  31   18   29 1
  32   19   30 1
  33   21   31 1
  34   22   32 1

#	End of record

