#	Name: ASD00390006
#	Creating user name:	WinNT
#	Creation time:	15. 06. 2019 18:35

#	Modifying user name:	WinNT
#	Modification time:	15. 06. 2019 18:35

#	Program:	/corina/corina34_cracker 3.40 0067  02.08.2006

@<TRIPOS>MOLECULE
ASD00390006
  33   32    0    0    0
SMALL
NO_CHARGES


@<TRIPOS>ATOM
   1 N1             0.3134     1.7901     0.5015 N.3     
   2 C2            -0.5780     0.8393    -1.5718 C.3     
   3 C3             0.4841     1.7531    -0.9571 C.3     
   4 O4            -0.2994    -0.5178    -1.2215 O.3     
   5 C5             1.4626     1.4800     2.6417 C.3     
   6 C6             1.6107     1.9087     1.1805 C.3     
   7 O7             0.9806     0.1359     2.6972 O.3     
   8 C8            -2.0181     2.5384     0.4676 C.3     
   9 C9            -0.5899     2.8785     0.8983 C.3     
  10 O10           -2.3070     1.1804     0.8058 O.3     
  11 C11            0.3318     3.1658    -1.5245 C.3     
  12 O12            1.2089     4.0550    -0.8303 O.3     
  13 C13            1.8763     1.2155    -1.2942 C.3     
  14 O14            1.9921     1.0464    -2.7084 O.3     
  15 H15           -1.5610     1.1181    -1.1921 H       
  16 H16           -0.5642     0.9447    -2.6566 H       
  17 H17           -0.9341    -1.1543    -1.5781 H       
  18 H18            2.4313     1.5395     3.1377 H       
  19 H19            0.7559     2.1404     3.1443 H       
  20 H20            2.3398     1.2671     0.6857 H       
  21 H21            1.9497     2.9438     1.1381 H       
  22 H22            0.7902    -0.1770     3.5922 H       
  23 H23           -2.7189     3.1974     0.9803 H       
  24 H24           -2.1146     2.6730    -0.6097 H       
  25 H25           -0.5565     3.0020     1.9808 H       
  26 H26           -0.2761     3.8048     0.4171 H       
  27 H27           -3.1980     0.8952     0.5612 H       
  28 H28            0.5843     3.1606    -2.5848 H       
  29 H29           -0.6983     3.4990    -1.3979 H       
  30 H30            1.1653     4.9706    -1.1384 H       
  31 H31            2.6317     1.9217    -0.9496 H       
  32 H32            2.0245     0.2552    -0.8001 H       
  33 H33            2.8513     0.7076    -2.9950 H       
@<TRIPOS>BOND
   1    1    3 1
   2    1    6 1
   3    1    9 1
   4    2    3 1
   5    2    4 1
   6    2   15 1
   7    2   16 1
   8    3   11 1
   9    3   13 1
  10    4   17 1
  11    5    6 1
  12    5    7 1
  13    5   18 1
  14    5   19 1
  15    6   20 1
  16    6   21 1
  17    7   22 1
  18    8    9 1
  19    8   10 1
  20    8   23 1
  21    8   24 1
  22    9   25 1
  23    9   26 1
  24   10   27 1
  25   11   12 1
  26   11   28 1
  27   11   29 1
  28   12   30 1
  29   13   14 1
  30   13   31 1
  31   13   32 1
  32   14   33 1

#	End of record

