#	Name: ASD01884365
#	Creating user name:	WinNT
#	Creation time:	15. 06. 2019 19:48

#	Modifying user name:	WinNT
#	Modification time:	15. 06. 2019 19:48

#	Program:	/corina/corina34_cracker 3.40 0067  02.08.2006

@<TRIPOS>MOLECULE
ASD01884365
  28   29    0    0    0
SMALL
NO_CHARGES


@<TRIPOS>ATOM
   1 C1            -0.0198     1.3820     0.0374 C.ar    
   2 C2            -0.0311     0.0174     0.2689 C.ar    
   3 C3             1.1426    -0.5924     0.6894 C.ar    
   4 C4             2.2778     0.1746     0.8630 C.ar    
   5 N5             2.2575     1.4737     0.6347 N.ar    
   6 C6             1.1586     2.0908     0.2326 C.ar    
   7 O7             1.1826     3.4289     0.0097 O.3     
   8 C8            -1.2893    -0.7878     0.0693 C.3     
   9 C9             3.5558    -0.4808     1.3194 C.3     
  10 C10            2.3766     4.0706     0.1072 C.ar    
  11 C11            3.3110     3.9576    -0.9120 C.ar    
  12 C12            2.6602     4.8440     1.2236 C.ar    
  13 C13            3.8744     5.4961     1.3220 C.ar    
  14 C14            4.8078     5.3793     0.3085 C.ar    
  15 C15            4.5256     4.6117    -0.8104 C.ar    
  16 Br16           6.4680     6.2740     0.4459 Br      
  17 F17            5.4386     4.4986    -1.7998 F       
  18 H18           -0.9142     1.8881    -0.2948 H       
  19 H19            1.1677    -1.6553     0.8792 H       
  20 H20           -1.3296    -1.1502    -0.9579 H       
  21 H21           -1.2903    -1.6359     0.7541 H       
  22 H22           -2.1578    -0.1598     0.2675 H       
  23 H23            4.1273    -0.8070     0.4504 H       
  24 H24            4.1451     0.2334     1.8945 H       
  25 H25            3.3195    -1.3427     1.9433 H       
  26 H26            3.0905     3.3594    -1.7837 H       
  27 H27            1.9317     4.9366     2.0155 H       
  28 H28            4.0944     6.0980     2.1913 H       
@<TRIPOS>BOND
   1    1    2 ar
   2    1    6 ar
   3    1   18 1
   4    2    3 ar
   5    2    8 1
   6    3    4 ar
   7    3   19 1
   8    4    5 ar
   9    4    9 1
  10    5    6 ar
  11    6    7 1
  12    7   10 1
  13    8   20 1
  14    8   21 1
  15    8   22 1
  16    9   23 1
  17    9   24 1
  18    9   25 1
  19   10   11 ar
  20   10   12 ar
  21   11   15 ar
  22   11   26 1
  23   12   13 ar
  24   12   27 1
  25   13   14 ar
  26   13   28 1
  27   14   15 ar
  28   14   16 1
  29   15   17 1

#	End of record

