#	Name: ASD01948103
#	Creating user name:	WinNT
#	Creation time:	15. 06. 2019 20:13

#	Modifying user name:	WinNT
#	Modification time:	15. 06. 2019 20:13

#	Program:	/corina/corina34_cracker 3.40 0067  02.08.2006

@<TRIPOS>MOLECULE
ASD01948103
  38   40    0    0    0
SMALL
NO_CHARGES


@<TRIPOS>ATOM
   1 C1             1.8317     1.3948     1.0491 C.ar    
   2 C2             1.8199     0.0036     1.0440 C.ar    
   3 C3             2.4020    -0.6961     2.0919 C.ar    
   4 C4             2.9912    -0.0100     3.1366 C.ar    
   5 C5             3.0015     1.3729     3.1401 C.ar    
   6 C6             2.4275     2.0749     2.0949 C.ar    
   7 N7             1.2222    -0.6887    -0.0149 N.pl3   
   8 C8             3.8112    -1.9713    -0.4394 C.2     
   9 C9             2.6135    -2.7151    -0.2968 C.2     
  10 C10            1.3225    -2.0636    -0.0847 C.2     
  11 C11            6.2243    -1.9283    -0.7901 C.3     
  12 N12            4.9614    -2.6550    -0.6378 N.am    
  13 F13            1.2667     2.0799     0.0310 F       
  14 I14            3.8958     2.4074     4.7273 I       
  15 C15            2.6728    -4.1145    -0.3611 C.2     
  16 N16            1.5274    -4.8475    -0.2252 N.am    
  17 C17            0.3358    -4.2584    -0.0299 C.2     
  18 C18            0.2020    -2.8692     0.0448 C.2     
  19 C19            4.9512    -4.0073    -0.6958 C.2     
  20 N20            3.8587    -4.7075    -0.5553 N.2     
  21 O21            3.8045    -0.7540    -0.3898 O.2     
  22 C22            1.6004    -6.3090    -0.2945 C.3     
  23 O23           -0.6585    -4.9565     0.0852 O.2     
  24 C24           -1.1542    -2.2502     0.2655 C.3     
  25 H25            2.3941    -1.7761     2.0910 H       
  26 H26            3.4441    -0.5546     3.9519 H       
  27 H27            2.4371     3.1548     2.1005 H       
  28 H28            0.7373    -0.2024    -0.7000 H       
  29 H29            6.6860    -1.7932     0.1879 H       
  30 H30            6.8956    -2.4974    -1.4333 H       
  31 H31            6.0310    -0.9538    -1.2385 H       
  32 H32            5.8842    -4.5272    -0.8556 H       
  33 H33            1.7653    -6.7123     0.7046 H       
  34 H34            0.6654    -6.7009    -0.6948 H       
  35 H35            2.4249    -6.6011    -0.9449 H       
  36 H36           -1.9158    -3.0298     0.2537 H       
  37 H37           -1.1691    -1.7422     1.2298 H       
  38 H38           -1.3585    -1.5306    -0.5273 H       
@<TRIPOS>BOND
   1    1    2 ar
   2    1   13 1
   3    1    6 ar
   4    2    3 ar
   5    2    7 1
   6    3    4 ar
   7    3   25 1
   8    4    5 ar
   9    4   26 1
  10    5    6 ar
  11    5   14 1
  12    6   27 1
  13    7   10 1
  14    7   28 1
  15    8    9 1
  16    8   21 2
  17    8   12 am
  18    9   10 1
  19    9   15 2
  20   10   18 2
  21   11   12 1
  22   11   29 1
  23   11   30 1
  24   11   31 1
  25   12   19 1
  26   15   16 1
  27   15   20 1
  28   16   17 am
  29   16   22 1
  30   17   18 1
  31   17   23 2
  32   18   24 1
  33   19   20 2
  34   19   32 1
  35   22   33 1
  36   22   34 1
  37   22   35 1
  38   24   36 1
  39   24   37 1
  40   24   38 1

#	End of record

