#	Name: ASD05060095
#	Creating user name:	WinNT
#	Creation time:	15. 06. 2019 20:56

#	Modifying user name:	WinNT
#	Modification time:	15. 06. 2019 20:56

#	Program:	/corina/corina34_cracker 3.40 0067  02.08.2006

@<TRIPOS>MOLECULE
ASD05060095
  58   65    0    0    0
SMALL
NO_CHARGES


@<TRIPOS>ATOM
   1 C1             0.0774     1.4529     0.0967 C.3     
   2 C2            -0.6132     3.4611    -1.2482 C.2     
   3 C3             0.0526    -0.0764     0.0350 C.3     
   4 C4            -0.7189     1.9586    -1.1271 C.3     
   5 C5             1.0943    -0.8040     0.8394 C.2     
   6 C6            -0.4345     1.1676    -2.4016 C.3     
   7 C7             2.2873    -0.2507     1.0785 C.2     
   8 C8             0.7640     1.7023    -3.1654 C.2     
   9 C9             2.5254     1.0945     0.5292 C.2     
  10 C10            1.0430     2.9995    -3.0292 C.2     
  11 C11            1.5223     1.8784     0.0854 C.2     
  12 C12            0.2428     3.9127    -2.1688 C.2     
  13 O13            2.0628     3.0409    -0.3391 O.3     
  14 O14            0.5500     5.1673    -2.5576 O.3     
  15 C15            3.4508     2.7956    -0.6048 C.3     
  16 C16            1.8157     5.1126    -3.2269 C.3     
  17 O17            3.6882     1.7662     0.3659 O.3     
  18 O18            2.0499     3.7364    -3.5441 O.3     
  19 C19           -1.2743    -0.7735    -0.0551 C.2     
  20 C20           -2.1104     1.6309    -0.5933 C.2     
  21 C21           -2.2516    -0.7339    -1.1848 C.3     
  22 C22           -2.9850     0.6024    -1.2904 C.3     
  23 C23           -3.0866    -1.9917    -0.9180 C.3     
  24 C24           -4.3095     0.7705    -0.5556 C.3     
  25 N25           -3.0349    -1.9413     0.5398 N.pl3   
  26 N26           -3.9154     1.4876     0.6570 N.pl3   
  27 N27           -1.7505    -1.5068     0.8911 N.2     
  28 N28           -2.6957     2.1247     0.4070 N.2     
  29 C29           -4.1293    -2.3494    -1.9356 C.2     
  30 C30           -5.2756    -0.3589    -0.3303 C.2     
  31 O31           -3.9881    -3.3765    -2.5644 O.2     
  32 O32           -5.8652    -0.9655    -1.3612 O.3     
  33 O33           -5.1904    -1.6086    -2.1830 O.3     
  34 O34           -5.5210    -0.7223     0.8001 O.2     
  35 C35           -4.1218    -2.2806     1.4617 C.3     
  36 C36           -4.6672     1.5311     1.9136 C.3     
  37 H37           -0.3965     1.7904     1.0184 H       
  38 H38           -1.1942     4.1285    -0.6290 H       
  39 H39            0.4286    -0.2459    -0.9740 H       
  40 H40            0.8753    -1.7870     1.2295 H       
  41 H41           -0.2462     0.1276    -2.1352 H       
  42 H42           -1.3117     1.2135    -3.0470 H       
  43 H43            3.0437    -0.7679     1.6501 H       
  44 H44            1.3649     1.0597    -3.7918 H       
  45 H45            3.6037     2.4294    -1.6200 H       
  46 H46            4.0571     3.6792    -0.4053 H       
  47 H47            1.7815     5.7062    -4.1404 H       
  48 H48            2.6024     5.4839    -2.5700 H       
  49 H49           -1.6981    -0.8855    -2.1115 H       
  50 H50           -3.1087     0.8752    -2.3385 H       
  51 H51           -2.3212    -2.7412    -1.1197 H       
  52 H52           -4.8674     1.5043    -1.1375 H       
  53 H53           -5.0124    -2.5453     0.8918 H       
  54 H54           -3.8222    -3.1260     2.0811 H       
  55 H55           -4.3393    -1.4229     2.0982 H       
  56 H56           -4.3511     0.7083     2.5549 H       
  57 H57           -4.4772     2.4786     2.4180 H       
  58 H58           -5.7327     1.4389     1.7029 H       
@<TRIPOS>BOND
   1    1    3 1
   2    1   11 1
   3    1    4 1
   4    1   37 1
   5    2    4 1
   6    2   12 2
   7    2   38 1
   8    3    5 1
   9    3   19 1
  10    3   39 1
  11    4    6 1
  12    4   20 1
  13    5    7 2
  14    5   40 1
  15    6    8 1
  16    6   41 1
  17    6   42 1
  18    7    9 1
  19    7   43 1
  20    8   10 2
  21    8   44 1
  22    9   11 2
  23    9   17 1
  24   10   12 1
  25   10   18 1
  26   11   13 1
  27   12   14 1
  28   13   15 1
  29   14   16 1
  30   15   17 1
  31   15   45 1
  32   15   46 1
  33   16   18 1
  34   16   47 1
  35   16   48 1
  36   19   21 1
  37   19   27 2
  38   20   22 1
  39   20   28 2
  40   21   23 1
  41   21   22 1
  42   21   49 1
  43   22   24 1
  44   22   50 1
  45   23   25 1
  46   23   29 1
  47   23   51 1
  48   24   26 1
  49   24   30 1
  50   24   52 1
  51   25   27 1
  52   25   35 1
  53   26   28 1
  54   26   36 1
  55   29   31 2
  56   29   33 1
  57   30   32 1
  58   30   34 2
  59   32   33 1
  60   35   53 1
  61   35   54 1
  62   35   55 1
  63   36   56 1
  64   36   57 1
  65   36   58 1

#	End of record

