#	Name: ASD01420108
#	Creating user name:	WinNT
#	Creation time:	15. 06. 2019 19:20

#	Modifying user name:	WinNT
#	Modification time:	15. 06. 2019 19:20

#	Program:	/corina/corina34_cracker 3.40 0067  02.08.2006

@<TRIPOS>MOLECULE
ASD01420108
  60   63    0    0    0
SMALL
NO_CHARGES


@<TRIPOS>ATOM
   1 C1            -0.0144     1.2120     0.0087 C.2     
   2 O2             0.1295     0.0133     0.1552 O.2     
   3 C3             1.0483     3.4383    -0.4768 C.3     
   4 N4             1.0607     2.0008    -0.1874 N.am    
   5 C5             2.4667     1.5859    -0.1516 C.3     
   6 C6             3.3113     2.8044    -0.4260 C.ar    
   7 C7             4.6843     2.9633    -0.5053 C.ar    
   8 C8             5.2236     4.2064    -0.7742 C.ar    
   9 C9             4.3911     5.2936    -0.9651 C.ar    
  10 C10            3.0210     5.1355    -0.8866 C.ar    
  11 C11            2.4800     3.8901    -0.6166 C.ar    
  12 N12            9.0461     6.0533    -0.5244 N.3     
  13 C13            8.5649     5.7192    -1.8710 C.3     
  14 C14            7.0494     5.5097    -1.8352 C.3     
  15 C15            6.7184     4.3774    -0.8590 C.3     
  16 C16            7.2726     4.7285     0.5245 C.3     
  17 C17            8.7817     4.9606     0.4203 C.3     
  18 C18           10.4742     6.3968    -0.5458 C.3     
  19 O19            7.3129     3.1618    -1.3185 O.3     
  20 C20           -1.3642     1.8010     0.0395 C.ar    
  21 C21           -2.2645     1.4465     1.0559 C.ar    
  22 C22           -3.5307     2.0050     1.0777 C.ar    
  23 C23           -3.9067     2.9113     0.0970 C.ar    
  24 C24           -3.0151     3.2637    -0.9114 C.ar    
  25 C25           -1.7517     2.7198    -0.9405 C.ar    
  26 C26           -3.4329     4.2492    -1.9722 C.3     
  27 C27           -2.5004     5.4617    -1.9376 C.3     
  28 C28           -3.3523     3.5831    -3.3473 C.3     
  29 O29           -5.1494     3.4562     0.1211 O.3     
  30 O30           -1.8953     0.5593     2.0135 O.3     
  31 H31            0.5100     3.6233    -1.4063 H       
  32 H32            0.5695     3.9758     0.3417 H       
  33 H33            2.7080     1.1830     0.8320 H       
  34 H34            2.6485     0.8305    -0.9161 H       
  35 H35            5.3349     2.1141    -0.3562 H       
  36 H36            4.8117     6.2659    -1.1750 H       
  37 H37            2.3709     5.9850    -1.0353 H       
  38 H38            8.8028     6.5344    -2.5543 H       
  39 H39            9.0499     4.8051    -2.2135 H       
  40 H40            6.5628     6.4278    -1.5059 H       
  41 H41            6.6947     5.2464    -2.8317 H       
  42 H42            6.7896     5.6343     0.8909 H       
  43 H43            7.0776     3.9070     1.2138 H       
  44 H44            9.2657     4.0501     0.0670 H       
  45 H45            9.1771     5.2248     1.4011 H       
  46 H46           10.6313     7.2570    -1.1966 H       
  47 H47           10.8046     6.6399     0.4640 H       
  48 H48           11.0464     5.5482    -0.9209 H       
  49 H49            7.1452     2.4010    -0.7458 H       
  50 H50           -4.2265     1.7348     1.8582 H       
  51 H51           -1.0610     2.9993    -1.7224 H       
  52 H52           -4.4567     4.5727    -1.7846 H       
  53 H53           -2.8026     6.1745    -2.7048 H       
  54 H54           -2.5578     5.9363    -0.9580 H       
  55 H55           -1.4766     5.1382    -2.1251 H       
  56 H56           -4.0166     2.7192    -3.3720 H       
  57 H57           -3.6545     4.2959    -4.1146 H       
  58 H58           -2.3285     3.2596    -3.5348 H       
  59 H59           -5.2087     4.2784     0.6267 H       
  60 H60           -1.4865     0.9659     2.7898 H       
@<TRIPOS>BOND
   1    1    2 2
   2    1    4 am
   3    1   20 1
   4    3    4 1
   5    3   11 1
   6    3   31 1
   7    3   32 1
   8    4    5 1
   9    5    6 1
  10    5   33 1
  11    5   34 1
  12    6    7 ar
  13    6   11 ar
  14    7    8 ar
  15    7   35 1
  16    8    9 ar
  17    8   15 1
  18    9   10 ar
  19    9   36 1
  20   10   11 ar
  21   10   37 1
  22   12   13 1
  23   12   17 1
  24   12   18 1
  25   13   14 1
  26   13   38 1
  27   13   39 1
  28   14   15 1
  29   14   40 1
  30   14   41 1
  31   15   16 1
  32   15   19 1
  33   16   17 1
  34   16   42 1
  35   16   43 1
  36   17   44 1
  37   17   45 1
  38   18   46 1
  39   18   47 1
  40   18   48 1
  41   19   49 1
  42   20   21 ar
  43   20   25 ar
  44   21   22 ar
  45   21   30 1
  46   22   23 ar
  47   22   50 1
  48   23   24 ar
  49   23   29 1
  50   24   25 ar
  51   24   26 1
  52   25   51 1
  53   26   27 1
  54   26   28 1
  55   26   52 1
  56   27   53 1
  57   27   54 1
  58   27   55 1
  59   28   56 1
  60   28   57 1
  61   28   58 1
  62   29   59 1
  63   30   60 1

#	End of record

