#	Name: ASD04880130
#	Creating user name:	WinNT
#	Creation time:	15. 06. 2019 20:52

#	Modifying user name:	WinNT
#	Modification time:	15. 06. 2019 20:52

#	Program:	/corina/corina34_cracker 3.40 0067  02.08.2006

@<TRIPOS>MOLECULE
ASD04880130
  50   52    0    0    0
SMALL
NO_CHARGES


@<TRIPOS>ATOM
   1 C1            -0.0088     1.0686    -0.0875 C.2     
   2 O2            -0.0833    -0.1432    -0.1555 O.2     
   3 C3             1.3137     1.7255    -0.0274 C.ar    
   4 C4             2.3561     1.1380     0.6916 C.ar    
   5 C5             3.5900     1.7574     0.7430 C.ar    
   6 C6             3.7924     2.9591     0.0828 C.ar    
   7 C7             2.7625     3.5447    -0.6307 C.ar    
   8 C8             1.5274     2.9330    -0.6943 C.ar    
   9 C9             2.1359    -0.1682     1.4104 C.3     
  10 F10            2.2523    -1.2257     0.5019 F       
  11 F11            3.0941    -0.3125     2.4194 F       
  12 F12            0.8568    -0.1788     1.9769 F       
  13 F13            4.6006     1.1911     1.4382 F       
  14 N14           -1.1323     1.8130    -0.0724 N.am    
  15 N15           -1.1867     3.1948     0.0981 N.2     
  16 C16           -2.3797     3.6814     0.0753 C.2     
  17 C17           -3.3767     2.5645    -0.1360 C.3     
  18 C18           -2.5013     1.2999    -0.2397 C.3     
  19 C19           -4.3321     2.4656     1.0550 C.3     
  20 C20           -4.1564     2.7797    -1.4347 C.3     
  21 C21           -2.7199     5.1073     0.2311 C.ar    
  22 C22           -1.7078     6.0523     0.4212 C.ar    
  23 C23           -2.0324     7.3877     0.5663 C.ar    
  24 C24           -3.3661     7.7895     0.5229 C.ar    
  25 C25           -4.3707     6.8520     0.3343 C.ar    
  26 C26           -4.0542     5.5180     0.1834 C.ar    
  27 O27           -3.6833     9.1035     0.6662 O.3     
  28 C28           -5.0695     9.4460     0.6116 C.3     
  29 O29           -1.0502     8.3098     0.7518 O.3     
  30 C30            0.2945     7.8274     0.7863 C.3     
  31 H31            4.7583     3.4404     0.1261 H       
  32 H32            2.9266     4.4814    -1.1427 H       
  33 H33            0.7259     3.3898    -1.2559 H       
  34 H34           -2.6180     0.8295    -1.2160 H       
  35 H35           -2.7480     0.5984     0.5572 H       
  36 H36           -4.8910     3.3965     1.1507 H       
  37 H37           -5.0258     1.6399     0.8967 H       
  38 H38           -3.7600     2.2899     1.9660 H       
  39 H39           -3.4609     2.8246    -2.2728 H       
  40 H40           -4.8508     1.9527    -1.5828 H       
  41 H41           -4.7128     3.7149    -1.3738 H       
  42 H42           -0.6746     5.7396     0.4550 H       
  43 H43           -5.4030     7.1678     0.3016 H       
  44 H44           -4.8381     4.7907     0.0322 H       
  45 H45           -5.4793     9.1495    -0.3539 H       
  46 H46           -5.6036     8.9273     1.4078 H       
  47 H47           -5.1831    10.5225     0.7394 H       
  48 H48            0.9766     8.6636     0.9398 H       
  49 H49            0.4039     7.1145     1.6036 H       
  50 H50            0.5286     7.3362    -0.1581 H       
@<TRIPOS>BOND
   1    1    2 2
   2    1    3 1
   3    1   14 am
   4    3    4 ar
   5    3    8 ar
   6    4    5 ar
   7    4    9 1
   8    5    6 ar
   9    5   13 1
  10    6    7 ar
  11    6   31 1
  12    7    8 ar
  13    7   32 1
  14    8   33 1
  15    9   10 1
  16    9   11 1
  17    9   12 1
  18   14   15 1
  19   14   18 1
  20   15   16 2
  21   16   17 1
  22   16   21 1
  23   17   18 1
  24   17   19 1
  25   17   20 1
  26   18   34 1
  27   18   35 1
  28   19   36 1
  29   19   37 1
  30   19   38 1
  31   20   39 1
  32   20   40 1
  33   20   41 1
  34   21   22 ar
  35   21   26 ar
  36   22   23 ar
  37   22   42 1
  38   23   24 ar
  39   23   29 1
  40   24   25 ar
  41   24   27 1
  42   25   26 ar
  43   25   43 1
  44   26   44 1
  45   27   28 1
  46   28   45 1
  47   28   46 1
  48   28   47 1
  49   29   30 1
  50   30   48 1
  51   30   49 1
  52   30   50 1

#	End of record

