#	Name: ASD02590058
#	Creating user name:	WinNT
#	Creation time:	15. 06. 2019 20:25

#	Modifying user name:	WinNT
#	Modification time:	15. 06. 2019 20:25

#	Program:	/corina/corina34_cracker 3.40 0067  02.08.2006

@<TRIPOS>MOLECULE
ASD02590058
  65   70    0    0    0
SMALL
NO_CHARGES


@<TRIPOS>ATOM
   1 C1            -0.0168     1.3882     0.0097 C.ar    
   2 C2             0.0021    -0.0041     0.0020 C.ar    
   3 C3             1.1863     2.0841     0.0019 C.ar    
   4 N4             2.3353     1.4436    -0.0125 N.ar    
   5 C5             2.3940     0.1169    -0.0202 C.ar    
   6 C6             1.2265    -0.6467    -0.0131 C.ar    
   7 C7             3.7099    -0.5578    -0.0364 C.2     
   8 N8             4.9211     0.0795    -0.0445 N.pl3   
   9 C9             5.8975    -0.8991    -0.0586 C.ar    
  10 C10            5.2180    -2.1302    -0.0584 C.ar    
  11 N11            3.8915    -1.8556    -0.0394 N.2     
  12 C12            7.2853    -0.8721    -0.0714 C.ar    
  13 C13            7.9958    -2.0527    -0.0840 C.ar    
  14 C14            7.3306    -3.2761    -0.0839 C.ar    
  15 C15            5.9515    -3.3217    -0.0713 C.ar    
  16 O16           -3.8066     6.1261     0.0534 O.3     
  17 C17           -3.9235     7.4793     0.0613 C.ar    
  18 C18           -5.1810     8.0772     0.0705 C.ar    
  19 C19           -5.2544     9.4581     0.0789 C.ar    
  20 C20           -4.0735    10.2007     0.0778 C.ar    
  21 N21           -2.8922     9.5942     0.0684 N.ar    
  22 C22           -2.7893     8.2826     0.0661 C.ar    
  23 C23           -4.1379    11.6783     0.0866 C.2     
  24 N24           -5.2417    12.3846     0.0962 N.2     
  25 C25           -4.9380    13.7048     0.1023 C.ar    
  26 C26           -3.5358    13.8089     0.0959 C.ar    
  27 N27           -3.0535    12.5133     0.0920 N.pl3   
  28 C28           -5.7150    14.8684     0.1133 C.ar    
  29 C29           -5.0984    16.1029     0.1178 C.ar    
  30 C30           -3.7091    16.1972     0.1114 C.ar    
  31 C31           -2.9324    15.0590     0.1005 C.ar    
  32 C32           -2.4822     5.5894     0.0442 C.3     
  33 O33           -1.1979     2.0589     0.0189 O.3     
  34 C34           -1.1334     3.4864     0.0264 C.3     
  35 C35           -2.5513     4.0610     0.0362 C.3     
  36 O36            8.0446    -4.4332    -0.0964 O.3     
  37 C37            9.4688    -4.3167    -0.1092 C.3     
  38 O38           -5.8523    17.2344     0.1280 O.3     
  39 C39           -5.1524    18.4803     0.1321 C.3     
  40 H40           -0.9183    -0.5691     0.0081 H       
  41 H41            1.1777     3.1641     0.0074 H       
  42 H42            1.2783    -1.7254    -0.0194 H       
  43 H43            5.0671     1.0385    -0.0410 H       
  44 H44            7.8076     0.0732    -0.0719 H       
  45 H45            9.0755    -2.0291    -0.0944 H       
  46 H46            5.4404    -4.2731    -0.0709 H       
  47 H47           -6.0784     7.4763     0.0708 H       
  48 H48           -6.2132     9.9550     0.0858 H       
  49 H49           -1.8113     7.8244     0.0588 H       
  50 H50           -2.1210    12.2461     0.0872 H       
  51 H51           -6.7929    14.8006     0.1180 H       
  52 H52           -3.2373    17.1687     0.1149 H       
  53 H53           -1.8554    15.1395     0.0959 H       
  54 H54           -1.9567     5.9340    -0.8464 H       
  55 H55           -1.9483     5.9243     0.9335 H       
  56 H56           -0.5994     3.8213     0.9157 H       
  57 H57           -0.6079     3.8310    -0.8642 H       
  58 H58           -3.0768     3.7164     0.9268 H       
  59 H59           -3.0853     3.7261    -0.8531 H       
  60 H60            9.7807    -3.7704    -0.9994 H       
  61 H61            9.7973    -3.7794     0.7805 H       
  62 H62            9.9147    -5.3113    -0.1184 H       
  63 H63           -4.5223    18.5401     1.0196 H       
  64 H64           -4.5306    18.5507    -0.7604 H       
  65 H65           -5.8704    19.3004     0.1404 H       
@<TRIPOS>BOND
   1    1    2 ar
   2    1    3 ar
   3    1   33 1
   4    2    6 ar
   5    2   40 1
   6    3    4 ar
   7    3   41 1
   8    4    5 ar
   9    5    6 ar
  10    5    7 1
  11    6   42 1
  12    7    8 1
  13    7   11 2
  14    8    9 1
  15    8   43 1
  16    9   10 ar
  17    9   12 ar
  18   10   11 1
  19   10   15 ar
  20   12   13 ar
  21   12   44 1
  22   13   14 ar
  23   13   45 1
  24   14   15 ar
  25   14   36 1
  26   15   46 1
  27   16   17 1
  28   16   32 1
  29   17   18 ar
  30   17   22 ar
  31   18   19 ar
  32   18   47 1
  33   19   20 ar
  34   19   48 1
  35   20   21 ar
  36   20   23 1
  37   21   22 ar
  38   22   49 1
  39   23   24 2
  40   23   27 1
  41   24   25 1
  42   25   26 ar
  43   25   28 ar
  44   26   27 1
  45   26   31 ar
  46   27   50 1
  47   28   29 ar
  48   28   51 1
  49   29   30 ar
  50   29   38 1
  51   30   31 ar
  52   30   52 1
  53   31   53 1
  54   32   35 1
  55   32   54 1
  56   32   55 1
  57   33   34 1
  58   34   35 1
  59   34   56 1
  60   34   57 1
  61   35   58 1
  62   35   59 1
  63   36   37 1
  64   37   60 1
  65   37   61 1
  66   37   62 1
  67   38   39 1
  68   39   63 1
  69   39   64 1
  70   39   65 1

#	End of record

