#	Name: ASD02198093
#	Creating user name:	WinNT
#	Creation time:	15. 06. 2019 20:18

#	Modifying user name:	WinNT
#	Modification time:	15. 06. 2019 20:18

#	Program:	/corina/corina34_cracker 3.40 0067  02.08.2006

@<TRIPOS>MOLECULE
ASD02198093
  53   54    0    0    0
SMALL
NO_CHARGES


@<TRIPOS>ATOM
   1 C1             0.7036     0.9613    -0.4046 C.2     
   2 C2             0.5660    -0.4072    -0.3030 C.2     
   3 C3            -0.7064    -1.0623    -0.2537 C.1     
   4 S4             2.3490     1.4063    -0.4385 S.3     
   5 C5             2.8719    -0.2657    -0.3147 C.2     
   6 C6             1.7765    -1.0949    -0.2526 C.2     
   7 C7             4.2125    -0.6935    -0.2841 C.2     
   8 C8             5.3060     0.2846    -0.4795 C.ar    
   9 O9             4.4730    -1.8698    -0.0966 O.2     
  10 N10            1.8676    -2.4740    -0.1499 N.pl3   
  11 N11           -0.3455     1.8473    -0.4751 N.pl3   
  12 N12           -1.7158    -1.5820    -0.2146 N.1     
  13 C13            5.5801     0.7838    -1.7532 C.ar    
  14 C14           -0.0880     3.2895    -0.4672 C.3     
  15 C15           -1.2723     4.0144    -1.0528 C.2     
  16 C16            0.1374     3.7594     0.9712 C.3     
  17 C17            0.5736     5.2259     0.9662 C.3     
  18 C18            6.6009     1.6954    -1.9287 C.ar    
  19 C19            7.3523     2.1141    -0.8452 C.ar    
  20 C20            7.0858     1.6224     0.4205 C.ar    
  21 C21            6.0636     0.7157     0.6104 C.ar    
  22 C22            8.4660     3.1095    -1.0443 C.3     
  23 C23            4.7632     0.3281    -2.9348 C.3     
  24 C24            0.7049     5.7238     2.4070 C.3     
  25 C25            1.9234     5.3541     0.2573 C.3     
  26 O26           -2.2329     3.3904    -1.4373 O.2     
  27 O27           -1.2601     5.3533    -1.1472 O.3     
  28 C28           -2.4349     5.9844    -1.7215 C.3     
  29 H29            2.7377    -2.9016    -0.1183 H       
  30 H30            1.0612    -3.0116    -0.1095 H       
  31 H31           -1.2560     1.5175    -0.5301 H       
  32 H32            0.7996     3.5034    -1.0626 H       
  33 H33           -0.7893     3.6579     1.5361 H       
  34 H34            0.9139     3.1510     1.4348 H       
  35 H35           -0.1708     5.8246     0.4413 H       
  36 H36            6.8141     2.0826    -2.9141 H       
  37 H37            7.6764     1.9526     1.2623 H       
  38 H38            5.8567     0.3326     1.5987 H       
  39 H39            8.0742     4.1204    -0.9322 H       
  40 H40            9.2445     2.9371    -0.3011 H       
  41 H41            8.8850     2.9910    -2.0436 H       
  42 H42            3.9542     1.0367    -3.1122 H       
  43 H43            5.3999     0.2749    -3.8179 H       
  44 H44            4.3446    -0.6571    -2.7288 H       
  45 H45            1.4493     5.1252     2.9319 H       
  46 H46            1.0157     6.7686     2.4034 H       
  47 H47           -0.2567     5.6325     2.9120 H       
  48 H48            2.6442     4.6828     0.7242 H       
  49 H49            1.8083     5.0895    -0.7938 H       
  50 H50            2.2793     6.3813     0.3365 H       
  51 H51           -2.5825     5.6204    -2.7383 H       
  52 H52           -3.3095     5.7413    -1.1181 H       
  53 H53           -2.2947     7.0652    -1.7393 H       
@<TRIPOS>BOND
   1    1    2 2
   2    1    4 1
   3    1   11 1
   4    2    3 1
   5    2    6 1
   6    3   12 3
   7    4    5 1
   8    5    6 2
   9    5    7 1
  10    6   10 1
  11    7    8 1
  12    7    9 2
  13    8   13 ar
  14    8   21 ar
  15   10   29 1
  16   10   30 1
  17   11   14 1
  18   11   31 1
  19   13   18 ar
  20   13   23 1
  21   14   15 1
  22   14   16 1
  23   14   32 1
  24   15   26 2
  25   15   27 1
  26   16   17 1
  27   16   33 1
  28   16   34 1
  29   17   25 1
  30   17   24 1
  31   17   35 1
  32   18   19 ar
  33   18   36 1
  34   19   20 ar
  35   19   22 1
  36   20   21 ar
  37   20   37 1
  38   21   38 1
  39   22   39 1
  40   22   40 1
  41   22   41 1
  42   23   42 1
  43   23   43 1
  44   23   44 1
  45   24   45 1
  46   24   46 1
  47   24   47 1
  48   25   48 1
  49   25   49 1
  50   25   50 1
  51   27   28 1
  52   28   51 1
  53   28   52 1
  54   28   53 1

#	End of record

