#	Name: ASD01914347
#	Creating user name:	WinNT
#	Creation time:	15. 06. 2019 20:03

#	Modifying user name:	WinNT
#	Modification time:	15. 06. 2019 20:03

#	Program:	/corina/corina34_cracker 3.40 0067  02.08.2006

@<TRIPOS>MOLECULE
ASD01914347
  48   51    0    0    0
SMALL
NO_CHARGES


@<TRIPOS>ATOM
   1 C1            -0.1100     1.1483     0.1654 C.2     
   2 N2            -0.1597    -0.1910     0.2846 N.pl3   
   3 C3            -1.3801    -0.9646     0.5346 C.3     
   4 C4            -2.4613    -0.0365     1.0983 C.3     
   5 N5            -2.5056     1.1969     0.2979 N.am    
   6 C6            -1.3082     2.0582     0.2908 C.3     
   7 C7            -3.2066     3.9870    -0.4792 C.ar    
   8 C8            -3.6694     2.8285    -1.1063 C.ar    
   9 C9            -3.6056     1.5296    -0.4063 C.2     
  10 C10           -3.2695     5.1967    -1.1381 C.ar    
  11 C11           -3.7898     5.2662    -2.4189 C.ar    
  12 C12           -4.1942     2.9044    -2.4005 C.ar    
  13 C13            1.1940     1.5011    -0.0757 C.2     
  14 C14            1.9494     0.3068    -0.0926 C.2     
  15 N15            1.1351    -0.6908     0.1244 N.2     
  16 C16            3.4352     0.2026    -0.3217 C.3     
  17 O17            4.1139     0.2280     0.9356 O.3     
  18 C18            5.4699     0.1425     0.9066 C.ar    
  19 C19            6.1928     0.1613     2.0906 C.ar    
  20 C20            7.5711     0.0738     2.0584 C.ar    
  21 C21            8.2302    -0.0324     0.8476 C.ar    
  22 C22            6.1332     0.0306    -0.3067 C.ar    
  23 O23           -4.5452     0.7604    -0.4653 O.2     
  24 C24            7.5120    -0.0508    -0.3338 C.ar    
  25 C25           -4.2505     4.1248    -3.0483 C.ar    
  26 B26            1.7428     2.9560    -0.2922 Du      
  27 F27           -4.6449     1.7892    -3.0156 F       
  28 O28            3.0778     3.2731     0.0736 O.3     
  29 O29            0.9043     3.9549    -0.8539 O.3     
  30 H30           -1.7295    -1.4051    -0.3993 H       
  31 H31           -1.1685    -1.7558     1.2539 H       
  32 H32           -3.4294    -0.5353     1.0526 H       
  33 H33           -2.2261     0.2097     2.1338 H       
  34 H34           -1.2506     2.6227     1.2215 H       
  35 H35           -1.3466     2.7414    -0.5577 H       
  36 H36           -2.8042     3.9364     0.5218 H       
  37 H37           -2.9116     6.0929    -0.6532 H       
  38 H38           -3.8363     6.2170    -2.9290 H       
  39 H39            3.6588    -0.7318    -0.8364 H       
  40 H40            3.7686     1.0422    -0.9315 H       
  41 H41            5.6785     0.2445     3.0366 H       
  42 H42            8.1343     0.0887     2.9798 H       
  43 H43            9.3078    -0.1006     0.8245 H       
  44 H44            5.5724     0.0113    -1.2295 H       
  45 H45            8.0292    -0.1334    -1.2783 H       
  46 H46           -4.6556     4.1865    -4.0476 H       
  47 H47            3.5704     2.5295     0.4471 H       
  48 H48            0.0427     3.6267    -1.1457 H       
@<TRIPOS>BOND
   1    1    2 1
   2    1   13 2
   3    1    6 1
   4    2    3 1
   5    2   15 1
   6    3    4 1
   7    3   30 1
   8    3   31 1
   9    4    5 1
  10    4   32 1
  11    4   33 1
  12    5    6 1
  13    5    9 am
  14    6   34 1
  15    6   35 1
  16    7    8 ar
  17    7   10 ar
  18    7   36 1
  19    8    9 1
  20    8   12 ar
  21    9   23 2
  22   10   11 ar
  23   10   37 1
  24   11   25 ar
  25   11   38 1
  26   12   27 1
  27   12   25 ar
  28   13   14 1
  29   13   26 1
  30   14   15 2
  31   14   16 1
  32   16   17 1
  33   16   39 1
  34   16   40 1
  35   17   18 1
  36   18   19 ar
  37   18   22 ar
  38   19   20 ar
  39   19   41 1
  40   20   21 ar
  41   20   42 1
  42   21   24 ar
  43   21   43 1
  44   22   24 ar
  45   22   44 1
  46   24   45 1
  47   25   46 1
  48   26   28 1
  49   26   29 1
  50   28   47 1
  51   29   48 1

#	End of record

