#	Name: ASD02508274
#	Creating user name:	WinNT
#	Creation time:	15. 06. 2019 20:24

#	Modifying user name:	WinNT
#	Modification time:	15. 06. 2019 20:24

#	Program:	/corina/corina34_cracker 3.40 0067  02.08.2006

@<TRIPOS>MOLECULE
ASD02508274
  40   42    0    0    0
SMALL
NO_CHARGES


@<TRIPOS>ATOM
   1 C1             0.0438     1.1039    -0.2554 C.ar    
   2 C2            -1.0395     1.5596    -1.0063 C.ar    
   3 C3            -2.2620     0.9115    -0.9244 C.ar    
   4 C4            -2.4038    -0.1859    -0.0976 C.ar    
   5 C5            -1.3294    -0.6386     0.6483 C.ar    
   6 C6            -0.1067    -0.0012     0.5677 C.ar    
   7 S7            -3.9569    -1.0113     0.0082 S.o2    
   8 N8            -4.5004    -0.8359     1.5626 N.am    
   9 C9            -4.8611     0.4294     2.0391 C.ar    
  10 O10            1.0940     1.9159    -0.5300 O.3     
  11 C11            0.7097     2.8501    -1.4139 C.2     
  12 N12           -0.5876     2.6640    -1.7281 N.am    
  13 O13           -4.8559    -0.2820    -0.8159 O.2     
  14 O14           -3.6886    -2.3954    -0.1693 O.2     
  15 O15            1.4218     3.7281    -1.8619 O.2     
  16 C16           -1.3788     3.4742    -2.6576 C.3     
  17 C17           -6.0419     0.5926     2.7518 C.ar    
  18 C18           -1.4930    -1.8360     1.5487 C.3     
  19 C19           -4.0361     1.5210     1.8045 C.ar    
  20 C20           -4.3921     2.7700     2.2759 C.ar    
  21 C21           -5.5731     2.9339     2.9832 C.ar    
  22 C22           -6.3969     1.8424     3.2223 C.ar    
  23 Cl23          -7.8756     2.0485     4.1081 Cl      
  24 O24           -5.9225     4.1639     3.4472 O.3     
  25 C25           -5.0255     5.2410     3.1692 C.3     
  26 F26           -4.8870     5.3870     1.7847 F       
  27 F27           -5.5349     6.4245     3.7142 F       
  28 F28           -3.7766     4.9661     3.7363 F       
  29 H29           -3.1016     1.2639    -1.5052 H       
  30 H30            0.7288    -0.3584     1.1514 H       
  31 H31           -4.5686    -1.6103     2.1428 H       
  32 H32           -0.7553     4.2681    -3.0689 H       
  33 H33           -1.7455     2.8438    -3.4676 H       
  34 H34           -2.2240     3.9136    -2.1279 H       
  35 H35           -6.6824    -0.2568     2.9379 H       
  36 H36           -1.3520    -2.7483     0.9691 H       
  37 H37           -0.7518    -1.7944     2.3468 H       
  38 H38           -2.4934    -1.8313     1.9813 H       
  39 H39           -3.1157     1.3938     1.2538 H       
  40 H40           -3.7499     3.6189     2.0935 H       
@<TRIPOS>BOND
   1    1    2 ar
   2    1   10 1
   3    1    6 ar
   4    2    3 ar
   5    2   12 1
   6    3    4 ar
   7    3   29 1
   8    4    5 ar
   9    4    7 1
  10    5    6 ar
  11    5   18 1
  12    6   30 1
  13    7    8 am
  14    7   13 2
  15    7   14 2
  16    8    9 1
  17    8   31 1
  18    9   17 ar
  19    9   19 ar
  20   10   11 1
  21   11   12 am
  22   11   15 2
  23   12   16 1
  24   16   32 1
  25   16   33 1
  26   16   34 1
  27   17   22 ar
  28   17   35 1
  29   18   36 1
  30   18   37 1
  31   18   38 1
  32   19   20 ar
  33   19   39 1
  34   20   21 ar
  35   20   40 1
  36   21   22 ar
  37   21   24 1
  38   22   23 1
  39   24   25 1
  40   25   26 1
  41   25   27 1
  42   25   28 1

#	End of record

