#	Name: ASD03731827
#	Creating user name:	WinNT
#	Creation time:	15. 06. 2019 20:46

#	Modifying user name:	WinNT
#	Modification time:	15. 06. 2019 20:46

#	Program:	/corina/corina34_cracker 3.40 0067  02.08.2006

@<TRIPOS>MOLECULE
ASD03731827
  34   35    0    0    0
SMALL
NO_CHARGES


@<TRIPOS>ATOM
   1 C1            -0.4045     1.1026    -1.9643 C.2     
   2 C2            -0.2828    -0.2751    -1.4530 C.ar    
   3 C3             0.9009    -0.9959    -1.6516 C.ar    
   4 C4             1.0095    -2.2850    -1.1705 C.ar    
   5 C5            -0.0532    -2.8662    -0.4913 C.ar    
   6 C6            -1.2314    -2.1527    -0.2925 C.ar    
   7 C7            -1.3470    -0.8636    -0.7634 C.ar    
   8 O8             0.5242     1.6144    -2.5594 O.2     
   9 N9            -1.5469     1.7925    -1.7768 N.am    
  10 S10           -1.6835     3.3398    -2.3509 S.o2    
  11 O11           -2.9854     3.7475    -1.9533 O.2     
  12 O12           -0.5263     4.0003    -1.8571 O.2     
  13 C13           -1.5948     3.1629    -4.1541 C.3     
  14 F14            1.9345    -0.4309    -2.3132 F       
  15 O15            0.0574    -4.1342    -0.0202 O.3     
  16 C16            1.2596    -4.7565    -0.1396 C.ar    
  17 C17            2.2083    -4.6274     0.8613 C.ar    
  18 C18            3.4413    -5.2682     0.7344 C.ar    
  19 C19            3.7100    -6.0355    -0.4013 C.ar    
  20 C20            2.7576    -6.1572    -1.3919 C.ar    
  21 C21            1.5340    -5.5261    -1.2621 C.ar    
  22 C22            4.4275    -5.1393     1.7646 C.1     
  23 N23            5.2100    -5.0370     2.5818 N.1     
  24 Cl24          -2.5556    -2.8865     0.5571 Cl      
  25 H25            1.9219    -2.8425    -1.3228 H       
  26 H26           -2.2604    -0.3098    -0.6044 H       
  27 H27           -2.2892     1.3828    -1.3055 H       
  28 H28           -2.4115     2.5279    -4.4975 H       
  29 H29           -1.6776     4.1449    -4.6200 H       
  30 H30           -0.6422     2.7098    -4.4283 H       
  31 H31            1.9945    -4.0324     1.7368 H       
  32 H32            4.6631    -6.5330    -0.5040 H       
  33 H33            2.9668    -6.7505    -2.2698 H       
  34 H34            0.7906    -5.6289    -2.0388 H       
@<TRIPOS>BOND
   1    1    2 1
   2    1    8 2
   3    1    9 am
   4    2    3 ar
   5    2    7 ar
   6    3    4 ar
   7    3   14 1
   8    4    5 ar
   9    4   25 1
  10    5    6 ar
  11    5   15 1
  12    6    7 ar
  13    6   24 1
  14    7   26 1
  15    9   10 am
  16    9   27 1
  17   10   11 2
  18   10   12 2
  19   10   13 1
  20   13   28 1
  21   13   29 1
  22   13   30 1
  23   15   16 1
  24   16   17 ar
  25   16   21 ar
  26   17   18 ar
  27   17   31 1
  28   18   19 ar
  29   18   22 1
  30   19   20 ar
  31   19   32 1
  32   20   21 ar
  33   20   33 1
  34   21   34 1
  35   22   23 3

#	End of record

