#	Name: ASD00100158
#	Creating user name:	WinNT
#	Creation time:	15. 06. 2019 18:30

#	Modifying user name:	WinNT
#	Modification time:	15. 06. 2019 18:30

#	Program:	/corina/corina34_cracker 3.40 0067  02.08.2006

@<TRIPOS>MOLECULE
ASD00100158
  53   56    0    0    0
SMALL
NO_CHARGES


@<TRIPOS>ATOM
   1 C1            -2.0045     4.0163    -0.8843 C.ar    
   2 C2            -0.8243     4.7283    -0.9892 C.ar    
   3 C3            -0.8154     5.9646    -1.6075 C.ar    
   4 C4            -1.9868     6.4887    -2.1214 C.ar    
   5 C5            -3.1669     5.7764    -2.0173 C.ar    
   6 C6            -3.1760     4.5407    -1.3977 C.ar    
   7 S7            -2.0144     2.4372    -0.1026 S.o2    
   8 O8            -3.1901     1.7758    -0.5491 O.2     
   9 O9            -0.7095     1.8994    -0.2682 O.2     
  10 N10           -2.2111     2.6953     1.5213 N.am    
  11 C11           -1.2301     3.3786     2.2438 C.ar    
  12 C12           -1.5927     4.3895     3.1216 C.ar    
  13 C13           -0.6112     5.0676     3.8396 C.ar    
  14 C14            0.7305     4.7268     3.6721 C.ar    
  15 C15            1.0832     3.7196     2.7966 C.ar    
  16 C16            0.1092     3.0418     2.0877 C.ar    
  17 C17           -2.2073     7.5469     5.9176 C.2     
  18 N18           -2.2533     6.5788     5.0352 N.2     
  19 C19           -0.9917     6.1501     4.7797 C.2     
  20 C20           -0.1403     6.8858     5.5364 C.2     
  21 N21           -0.9079     7.7689     6.2559 N.pl3   
  22 C22           -0.4182     8.7664     7.2106 C.3     
  23 C23           -0.4734     8.1970     8.6048 C.ar    
  24 C24            0.5547     7.3868     9.0651 C.ar    
  25 C25            0.5010     6.8641    10.3488 C.ar    
  26 C26           -0.5756     7.1514    11.1659 C.ar    
  27 C27           -1.5988     7.9585    10.7047 C.ar    
  28 C28           -1.5446     8.4858     9.4275 C.ar    
  29 O29            1.6123     7.1054     8.2594 O.3     
  30 C30            2.6338     6.2646     8.7995 C.3     
  31 N31           -3.2997     8.2341     6.4183 N.pl3   
  32 H32            0.0909     4.3188    -0.5877 H       
  33 H33            0.1065     6.5211    -1.6888 H       
  34 H34           -1.9800     7.4549    -2.6039 H       
  35 H35           -4.0821     6.1860    -2.4185 H       
  36 H36           -4.0980     3.9843    -1.3161 H       
  37 H37           -3.0076     2.3721     1.9707 H       
  38 H38           -2.6332     4.6501     3.2476 H       
  39 H39            1.4941     5.2513     4.2274 H       
  40 H40            2.1230     3.4575     2.6682 H       
  41 H41            0.3901     2.2516     1.4073 H       
  42 H42            0.9355     6.7950     5.5672 H       
  43 H43            0.6110     9.0290     6.9658 H       
  44 H44           -1.0431     9.6579     7.1572 H       
  45 H45            1.2997     6.2330    10.7093 H       
  46 H46           -0.6179     6.7447    12.1655 H       
  47 H47           -2.4398     8.1813    11.3447 H       
  48 H48           -2.3429     9.1200     9.0712 H       
  49 H49            3.0584     6.7333     9.6872 H       
  50 H50            2.2052     5.2991     9.0682 H       
  51 H51            3.4167     6.1201     8.0551 H       
  52 H52           -4.1980     7.9600     6.1758 H       
  53 H53           -3.1669     8.9899     7.0117 H       
@<TRIPOS>BOND
   1    1    2 ar
   2    1    6 ar
   3    1    7 1
   4    2    3 ar
   5    2   32 1
   6    3    4 ar
   7    3   33 1
   8    4    5 ar
   9    4   34 1
  10    5    6 ar
  11    5   35 1
  12    6   36 1
  13    7    8 2
  14    7    9 2
  15    7   10 am
  16   10   11 1
  17   10   37 1
  18   11   12 ar
  19   11   16 ar
  20   12   13 ar
  21   12   38 1
  22   13   14 ar
  23   13   19 1
  24   14   15 ar
  25   14   39 1
  26   15   16 ar
  27   15   40 1
  28   16   41 1
  29   17   18 2
  30   17   21 1
  31   17   31 1
  32   18   19 1
  33   19   20 2
  34   20   21 1
  35   20   42 1
  36   21   22 1
  37   22   23 1
  38   22   43 1
  39   22   44 1
  40   23   24 ar
  41   23   28 ar
  42   24   25 ar
  43   24   29 1
  44   25   26 ar
  45   25   45 1
  46   26   27 ar
  47   26   46 1
  48   27   28 ar
  49   27   47 1
  50   28   48 1
  51   29   30 1
  52   30   49 1
  53   30   50 1
  54   30   51 1
  55   31   52 1
  56   31   53 1

#	End of record

