#	Name: ASD02670018
#	Creating user name:	WinNT
#	Creation time:	15. 06. 2019 20:26

#	Modifying user name:	WinNT
#	Modification time:	15. 06. 2019 20:26

#	Program:	/corina/corina34_cracker 3.40 0067  02.08.2006

@<TRIPOS>MOLECULE
ASD02670018
  21   22    0    0    0
SMALL
NO_CHARGES


@<TRIPOS>ATOM
   1 N1            -0.0166     1.3705     0.0096 N.pl3   
   2 C2             0.0021    -0.0041     0.0020 C.2     
   3 C3             1.2733    -0.4421    -0.0125 C.2     
   4 C4             2.1353     0.7447    -0.0143 C.ar    
   5 C5             3.5181     0.9378    -0.0269 C.ar    
   6 C6             4.0261     2.2060    -0.0253 C.ar    
   7 C7             3.1782     3.3054    -0.0113 C.ar    
   8 C8             1.8111     3.1380     0.0012 C.ar    
   9 C9             1.2718     1.8552    -0.0001 C.ar    
  10 O10            1.6828    -1.7412    -0.0227 O.3     
  11 S11            1.8560    -2.3248    -1.4176 S.o2    
  12 O12            2.0839    -3.7167    -1.2449 O.2     
  13 O13            0.7947    -1.8029    -2.2055 O.2     
  14 O14            3.1417    -1.7467    -1.9915 O.3     
  15 H15           -0.8178     1.9172     0.0165 H       
  16 H16           -0.8729    -0.6371     0.0070 H       
  17 H17            4.1839     0.0874    -0.0374 H       
  18 H18            5.0958     2.3545    -0.0346 H       
  19 H19            3.5948     4.3018    -0.0099 H       
  20 H20            1.1599     3.9995     0.0124 H       
  21 H21            3.3479    -2.0559    -2.8842 H       
@<TRIPOS>BOND
   1    1    2 1
   2    1    9 1
   3    1   15 1
   4    2    3 2
   5    2   16 1
   6    3    4 1
   7    3   10 1
   8    4    5 ar
   9    4    9 ar
  10    5    6 ar
  11    5   17 1
  12    6    7 ar
  13    6   18 1
  14    7    8 ar
  15    7   19 1
  16    8    9 ar
  17    8   20 1
  18   10   11 1
  19   11   12 2
  20   11   13 2
  21   11   14 1
  22   14   21 1

#	End of record

