#	Name: ASD01001151
#	Creating user name:	WinNT
#	Creation time:	15. 06. 2019 18:55

#	Modifying user name:	WinNT
#	Modification time:	15. 06. 2019 18:55

#	Program:	/corina/corina34_cracker 3.40 0067  02.08.2006

@<TRIPOS>MOLECULE
ASD01001151
  44   45    0    0    0
SMALL
NO_CHARGES


@<TRIPOS>ATOM
   1 C1            -0.1048     1.3730     0.2654 C.ar    
   2 C2            -0.0845    -0.1231     0.0854 C.3     
   3 C3             1.0652     2.0997     0.1416 C.ar    
   4 C4            -1.2930     2.0178     0.5484 C.ar    
   5 C5             0.0674    -0.4135    -1.3940 C.2     
   6 N6             0.9449    -0.6744     0.9826 N.am    
   7 C7             1.0498     3.4723     0.3058 C.ar    
   8 C8            -1.3111     3.3954     0.7137 C.ar    
   9 C9            -0.8715     0.0739    -2.3362 C.2     
  10 C10            1.1279    -1.1519    -1.7838 C.2     
  11 C11            1.9475    -1.3948     0.4421 C.2     
  12 C12           -0.1353     4.1214     0.5941 C.ar    
  13 O13           -2.4790     4.0322     0.9917 O.3     
  14 N14           -0.5666     1.1407    -3.1014 N.am    
  15 O15           -1.9539    -0.4709    -2.4546 O.2     
  16 C16            1.3165    -1.4638    -3.2460 C.3     
  17 N17            2.0329    -1.6205    -0.8749 N.am    
  18 S18            3.1517    -2.0416     1.4730 S.2     
  19 H19            0.9025    -0.5224     1.9397 H       
  20 H20           -2.6667     4.1148     1.9368 H       
  21 H21            2.7792    -2.1469    -1.2017 H       
  22 O22           -1.4600     1.5629    -4.1156 O.3     
  23 C23           -1.0102     2.7046    -4.8480 C.3     
  24 O24           -1.9795     3.0457    -5.8410 O.3     
  25 C25           -3.1465     3.6842    -5.3189 C.3     
  26 C26           -4.1096     4.0020    -6.4645 C.3     
  27 N27           -4.5862     2.7525    -7.0627 N.2     
  28 N28           -5.6849     2.5152    -7.0680 N.1     
  29 N29           -6.7835     2.2779    -7.0732 N.pl3   
  30 H30           -1.0515    -0.5103     0.4062 H       
  31 H31            1.9926     1.5940    -0.0834 H       
  32 H32           -2.2073     1.4504     0.6406 H       
  33 H33            1.9649     4.0375     0.2089 H       
  34 H34           -0.1468     5.1937     0.7223 H       
  35 H35            0.2648     1.6191    -2.9574 H       
  36 H36            1.9569    -0.7072    -3.6993 H       
  37 H37            1.7816    -2.4440    -3.3513 H       
  38 H38            0.3474    -1.4660    -3.7450 H       
  39 H39           -0.8775     3.5445    -4.1660 H       
  40 H40           -0.0604     2.4753    -5.3310 H       
  41 H41           -3.6360     3.0202    -4.6064 H       
  42 H42           -2.8611     4.6087    -4.8171 H       
  43 H43           -4.9583     4.5674    -6.0794 H       
  44 H44           -3.5925     4.5928    -7.2206 H       
@<TRIPOS>BOND
   1    1    2 1
   2    1    3 ar
   3    1    4 ar
   4    2    5 1
   5    2    6 1
   6    2   30 1
   7    3    7 ar
   8    3   31 1
   9    4    8 ar
  10    4   32 1
  11    5    9 1
  12    5   10 2
  13    6   11 am
  14    6   19 1
  15    7   12 ar
  16    7   33 1
  17    8   12 ar
  18    8   13 1
  19    9   14 am
  20    9   15 2
  21   10   16 1
  22   10   17 1
  23   11   17 am
  24   11   18 2
  25   12   34 1
  26   13   20 1
  27   14   22 1
  28   14   35 1
  29   16   36 1
  30   16   37 1
  31   16   38 1
  32   17   21 1
  33   22   23 1
  34   23   24 1
  35   23   39 1
  36   23   40 1
  37   24   25 1
  38   25   26 1
  39   25   41 1
  40   25   42 1
  41   26   27 1
  42   26   43 1
  43   26   44 1
  44   27   28 2
  45   28   29 2

#	End of record

