#	Name: ASD01028113
#	Creating user name:	WinNT
#	Creation time:	15. 06. 2019 18:56

#	Modifying user name:	WinNT
#	Modification time:	15. 06. 2019 18:56

#	Program:	/corina/corina34_cracker 3.40 0067  02.08.2006

@<TRIPOS>MOLECULE
ASD01028113
  54   56    0    0    0
SMALL
NO_CHARGES


@<TRIPOS>ATOM
   1 N1             0.4838     1.5986    -0.8416 N.pl3   
   2 C2             0.3496     0.2132    -0.6884 C.ar    
   3 C3             1.4363    -0.5495    -0.2827 C.ar    
   4 C4             2.7610     0.1141    -0.0076 C.3     
   5 C5            -0.8742    -0.3995    -0.9371 C.ar    
   6 C6            -1.0023    -1.7753    -0.7829 C.ar    
   7 C7             0.0906    -2.5304    -0.3820 C.ar    
   8 C8             1.3042    -1.9168    -0.1305 C.ar    
   9 O9            -2.0778     0.1099    -1.3348 O.3     
  10 C10           -2.8322    -1.0184    -1.8155 C.3     
  11 O11           -2.2858    -2.1311    -1.0830 O.3     
  12 Br12          -0.0818    -4.4018    -0.1719 Br      
  13 N13            2.7722     0.6327     1.3625 N.am    
  14 C14            3.1720    -0.1571     2.3788 C.2     
  15 O15            3.1823     0.3196     3.6379 O.3     
  16 O16            3.5232    -1.2993     2.1586 O.2     
  17 C17            3.6248    -0.5869     4.6823 C.3     
  18 C18            3.5694     0.1159     6.0142 C.ar    
  19 C19            2.4174     0.0627     6.7764 C.ar    
  20 C20            4.6725     0.8091     6.4763 C.ar    
  21 C21            4.6217     1.4539     7.6980 C.ar    
  22 C22            3.4677     1.4058     8.4575 C.ar    
  23 C23            2.3666     0.7075     7.9981 C.ar    
  24 C24            2.3487     2.0099     1.6279 C.3     
  25 C25            0.8809     2.0179     2.0596 C.3     
  26 C26            0.4187     3.4613     2.2686 C.3     
  27 C27           -1.0491     3.4693     2.7003 C.3     
  28 C28           -1.5114     4.9128     2.9093 C.3     
  29 O29           -2.8823     4.9203     3.3125 O.3     
  30 H30            1.3363     2.0258    -0.6642 H       
  31 H31           -0.2748     2.1305    -1.1290 H       
  32 H32            3.5637    -0.6136    -0.1272 H       
  33 H33            2.9082     0.9359    -0.7084 H       
  34 H34            2.1523    -2.5083     0.1814 H       
  35 H35           -3.8916    -0.8949    -1.5907 H       
  36 H36           -2.6800    -1.1529    -2.8864 H       
  37 H37            2.9734    -1.4606     4.7051 H       
  38 H38            4.6485    -0.9022     4.4801 H       
  39 H39            1.5570    -0.4823     6.4173 H       
  40 H40            5.5742     0.8467     5.8829 H       
  41 H41            5.4838     1.9949     8.0593 H       
  42 H42            3.4281     1.9092     9.4121 H       
  43 H43            1.4650     0.6699     8.5915 H       
  44 H44            2.9635     2.4322     2.4227 H       
  45 H45            2.4646     2.6064     0.7230 H       
  46 H46            0.2721     1.5498     1.2860 H       
  47 H47            0.7733     1.4633     2.9918 H       
  48 H48            1.0275     3.9294     3.0421 H       
  49 H49            0.5263     4.0159     1.3364 H       
  50 H50           -1.6579     3.0013     1.9267 H       
  51 H51           -1.1567     2.9148     3.6325 H       
  52 H52           -0.9026     5.3809     3.6828 H       
  53 H53           -1.4038     5.4673     1.9771 H       
  54 H54           -3.2431     5.8047     3.4633 H       
@<TRIPOS>BOND
   1    1    2 1
   2    1   30 1
   3    1   31 1
   4    2    3 ar
   5    2    5 ar
   6    3    4 1
   7    3    8 ar
   8    4   13 1
   9    4   32 1
  10    4   33 1
  11    5    6 ar
  12    5    9 1
  13    6    7 ar
  14    6   11 1
  15    7    8 ar
  16    7   12 1
  17    8   34 1
  18    9   10 1
  19   10   11 1
  20   10   35 1
  21   10   36 1
  22   13   14 am
  23   13   24 1
  24   14   15 1
  25   14   16 2
  26   15   17 1
  27   17   18 1
  28   17   37 1
  29   17   38 1
  30   18   19 ar
  31   18   20 ar
  32   19   23 ar
  33   19   39 1
  34   20   21 ar
  35   20   40 1
  36   21   22 ar
  37   21   41 1
  38   22   23 ar
  39   22   42 1
  40   23   43 1
  41   24   25 1
  42   24   44 1
  43   24   45 1
  44   25   26 1
  45   25   46 1
  46   25   47 1
  47   26   27 1
  48   26   48 1
  49   26   49 1
  50   27   28 1
  51   27   50 1
  52   27   51 1
  53   28   29 1
  54   28   52 1
  55   28   53 1
  56   29   54 1

#	End of record

