#	Name: ASD03331647
#	Creating user name:	WinNT
#	Creation time:	15. 06. 2019 20:39

#	Modifying user name:	WinNT
#	Modification time:	15. 06. 2019 20:39

#	Program:	/corina/corina34_cracker 3.40 0067  02.08.2006

@<TRIPOS>MOLECULE
ASD03331647
  48   50    0    0    0
SMALL
NO_CHARGES


@<TRIPOS>ATOM
   1 C1             1.9767     0.2804    -0.4839 C.ar    
   2 C2             0.9663    -0.4100     0.1484 C.ar    
   3 C3             0.1886     0.2135     1.1158 C.ar    
   4 C4             0.4141     1.5287     1.4580 C.ar    
   5 C5             2.2171     1.6140    -0.1477 C.ar    
   6 C6             3.1786     2.6208    -0.6037 C.2     
   7 C7             1.4289     2.2445     0.8322 C.ar    
   8 N8             1.8881     3.5378     0.9520 N.pl3   
   9 C9             2.9302     3.7431     0.0895 C.2     
  10 S10            3.8152     5.2566    -0.0853 S.o2    
  11 O11            3.1997     6.1856     0.7964 O.2     
  12 O12            5.1954     4.9239    -0.0238 O.2     
  13 N13            3.5363     5.8131    -1.6199 N.am    
  14 C14            2.1820     6.1982    -2.0246 C.3     
  15 C15            2.2505     7.0351    -3.3036 C.3     
  16 C16            0.8574     7.4313    -3.7199 C.ar    
  17 C17           -1.1467     6.9718    -4.9471 C.ar    
  18 C18            0.1302     6.6118    -4.5636 C.ar    
  19 C19            0.3069     8.6107    -3.2527 C.ar    
  20 C20           -0.9697     8.9766    -3.6318 C.ar    
  21 C21           -1.7007     8.1585    -4.4838 C.ar    
  22 N22           -2.9919     8.5257    -4.8696 N.pl3   
  23 C23            4.2444     2.4322    -1.6523 C.3     
  24 C24           -3.5315     9.8293    -4.4750 C.3     
  25 C25           -3.8066     7.6073    -5.6690 C.3     
  26 Cl26           0.6628    -2.0682    -0.2664 Cl      
  27 H27            2.5825    -0.2085    -1.2325 H       
  28 H28           -0.6009    -0.3382     1.6043 H       
  29 H29           -0.1970     2.0036     2.2113 H       
  30 H30            1.5268     4.2036     1.5579 H       
  31 H31            4.2697     5.8840    -2.2508 H       
  32 H32            1.5890     5.3023    -2.2080 H       
  33 H33            1.7186     6.7846    -1.2311 H       
  34 H34            2.8435     7.9311    -3.1202 H       
  35 H35            2.7139     6.4488    -4.0971 H       
  36 H36           -1.7142     6.3312    -5.6058 H       
  37 H37            0.5615     5.6894    -4.9234 H       
  38 H38            0.8759     9.2463    -2.5903 H       
  39 H39           -1.3992     9.8975    -3.2660 H       
  40 H40            3.8178     2.6084    -2.6398 H       
  41 H41            5.0563     3.1379    -1.4761 H       
  42 H42            4.6300     1.4141    -1.5995 H       
  43 H43           -3.2896    10.5688    -5.2383 H       
  44 H44           -4.6139     9.7574    -4.3688 H       
  45 H45           -3.0924    10.1315    -3.5242 H       
  46 H46           -3.2119     6.7344    -5.9381 H       
  47 H47           -4.6734     7.2914    -5.0885 H       
  48 H48           -4.1408     8.1127    -6.5751 H       
@<TRIPOS>BOND
   1    1    2 ar
   2    1    5 ar
   3    1   27 1
   4    2    3 ar
   5    2   26 1
   6    3    4 ar
   7    3   28 1
   8    4    7 ar
   9    4   29 1
  10    5    7 ar
  11    5    6 1
  12    6    9 2
  13    6   23 1
  14    7    8 1
  15    8    9 1
  16    8   30 1
  17    9   10 1
  18   10   11 2
  19   10   12 2
  20   10   13 am
  21   13   14 1
  22   13   31 1
  23   14   15 1
  24   14   32 1
  25   14   33 1
  26   15   16 1
  27   15   34 1
  28   15   35 1
  29   16   19 ar
  30   16   18 ar
  31   17   18 ar
  32   17   21 ar
  33   17   36 1
  34   18   37 1
  35   19   20 ar
  36   19   38 1
  37   20   21 ar
  38   20   39 1
  39   21   22 1
  40   22   25 1
  41   22   24 1
  42   23   40 1
  43   23   41 1
  44   23   42 1
  45   24   43 1
  46   24   44 1
  47   24   45 1
  48   25   46 1
  49   25   47 1
  50   25   48 1

#	End of record

