#	Name: ASD01180217
#	Creating user name:	WinNT
#	Creation time:	15. 06. 2019 19:07

#	Modifying user name:	WinNT
#	Modification time:	15. 06. 2019 19:07

#	Program:	/corina/corina34_cracker 3.40 0067  02.08.2006

@<TRIPOS>MOLECULE
ASD01180217
  66   68    0    0    0
SMALL
NO_CHARGES


@<TRIPOS>ATOM
   1 C1            -2.3351    -2.8194    -6.0068 C.ar    
   2 C2            -1.8856    -3.5936    -4.9566 C.ar    
   3 C3            -0.6952    -3.2639    -4.3109 C.ar    
   4 C4             0.0345    -2.1530    -4.7304 C.ar    
   5 C5            -0.4247    -1.3860    -5.7818 C.ar    
   6 C6            -1.6068    -1.7180    -6.4190 C.ar    
   7 C7            -0.2071    -4.0918    -3.1813 C.ar    
   8 C8             1.1623    -4.2839    -3.0088 C.ar    
   9 C9             1.6062    -5.0573    -1.9519 C.ar    
  10 C10            0.6598    -5.6176    -1.0955 C.ar    
  11 C11           -0.6904    -5.3828    -1.3296 C.ar    
  12 N12           -1.0788    -4.6371    -2.3426 N.ar    
  13 N13            1.0630    -6.4057    -0.0159 N.pl3   
  14 C14            0.0646    -6.9434     0.9117 C.3     
  15 C15           -0.4494    -8.2599     0.3887 C.ar    
  16 N16            0.3731    -9.2873     0.2971 N.ar    
  17 C17           -0.0251   -10.4591    -0.1531 C.ar    
  18 C18           -1.3475   -10.6534    -0.5532 C.ar    
  19 C19           -2.2444    -9.5815    -0.4677 C.ar    
  20 C20           -1.7774    -8.3729     0.0177 C.ar    
  21 C21           -1.7941   -11.9686    -1.0595 C.2     
  22 N22           -0.9212   -12.9925    -1.1374 N.am    
  23 O23           -2.9487   -12.1266    -1.4054 O.2     
  24 C24           -2.1030    -0.8765    -7.5665 C.3     
  25 F25           -1.5873    -1.3751    -8.7676 F       
  26 F26           -3.5008    -0.9190    -7.6057 F       
  27 F27           -1.6814     0.4460    -7.3913 F       
  28 C28            0.7059    -7.1553     2.2846 C.3     
  29 C29            1.1274    -5.8038     2.8647 C.3     
  30 C30           -0.1169    -4.9593     3.1466 C.3     
  31 C31            1.8988    -6.0261     4.1672 C.3     
  32 C32           -1.3638   -14.2959    -1.6391 C.3     
  33 C33           -0.1874   -15.2741    -1.6249 C.3     
  34 C34           -0.6427   -16.6148    -2.1409 C.2     
  35 O35           -1.7903   -16.7718    -2.4848 O.2     
  36 O36            0.2267   -17.6345    -2.2186 O.3     
  37 C37            2.1468    -3.6572    -3.9622 C.3     
  38 H38           -3.2551    -3.0765    -6.5108 H       
  39 H39           -2.4552    -4.4531    -4.6354 H       
  40 H40            0.9574    -1.8928    -4.2334 H       
  41 H41            0.1399    -0.5250    -6.1077 H       
  42 H42            2.6616    -5.2236    -1.7938 H       
  43 H43           -1.4291    -5.8138    -0.6701 H       
  44 H44            2.0041    -6.5972     0.1201 H       
  45 H45           -0.7633    -6.2402     1.0021 H       
  46 H46            0.6781   -11.2766    -0.2133 H       
  47 H47           -3.2752    -9.6964    -0.7689 H       
  48 H48           -2.4405    -7.5242     0.0978 H       
  49 H49            0.0001   -12.8665    -0.8614 H       
  50 H50           -0.0137    -7.6289     2.9525 H       
  51 H51            1.5819    -7.7956     2.1814 H       
  52 H52            1.7647    -5.2841     2.1492 H       
  53 H53            0.1853    -3.9765     3.5083 H       
  54 H54           -0.6952    -4.8469     2.2295 H       
  55 H55           -0.7272    -5.4529     3.9029 H       
  56 H56            2.7853    -6.6277     3.9663 H       
  57 H57            2.1991    -5.0632     4.5805 H       
  58 H58            1.2615    -6.5457     4.8827 H       
  59 H59           -2.1619   -14.6782    -1.0028 H       
  60 H60           -1.7330   -14.1864    -2.6588 H       
  61 H61            0.6107   -14.8918    -2.2612 H       
  62 H62            0.1818   -15.3835    -0.6052 H       
  63 H63           -0.1117   -18.4752    -2.5559 H       
  64 H64            2.4267    -2.6688    -3.5977 H       
  65 H65            3.0357    -4.2843    -4.0308 H       
  66 H66            1.6901    -3.5651    -4.9476 H       
@<TRIPOS>BOND
   1    1    2 ar
   2    1    6 ar
   3    1   38 1
   4    2    3 ar
   5    2   39 1
   6    3    4 ar
   7    3    7 1
   8    4    5 ar
   9    4   40 1
  10    5    6 ar
  11    5   41 1
  12    6   24 1
  13    7    8 ar
  14    7   12 ar
  15    8    9 ar
  16    8   37 1
  17    9   10 ar
  18    9   42 1
  19   10   11 ar
  20   10   13 1
  21   11   12 ar
  22   11   43 1
  23   13   14 1
  24   13   44 1
  25   14   15 1
  26   14   28 1
  27   14   45 1
  28   15   16 ar
  29   15   20 ar
  30   16   17 ar
  31   17   18 ar
  32   17   46 1
  33   18   19 ar
  34   18   21 1
  35   19   20 ar
  36   19   47 1
  37   20   48 1
  38   21   22 am
  39   21   23 2
  40   22   32 1
  41   22   49 1
  42   24   25 1
  43   24   26 1
  44   24   27 1
  45   28   29 1
  46   28   50 1
  47   28   51 1
  48   29   30 1
  49   29   31 1
  50   29   52 1
  51   30   53 1
  52   30   54 1
  53   30   55 1
  54   31   56 1
  55   31   57 1
  56   31   58 1
  57   32   33 1
  58   32   59 1
  59   32   60 1
  60   33   34 1
  61   33   61 1
  62   33   62 1
  63   34   35 2
  64   34   36 1
  65   36   63 1
  66   37   64 1
  67   37   65 1
  68   37   66 1

#	End of record

