#	Name: ASD01001275
#	Creating user name:	WinNT
#	Creation time:	15. 06. 2019 18:55

#	Modifying user name:	WinNT
#	Modification time:	15. 06. 2019 18:55

#	Program:	/corina/corina34_cracker 3.40 0067  02.08.2006

@<TRIPOS>MOLECULE
ASD01001275
  33   34    0    0    0
SMALL
NO_CHARGES


@<TRIPOS>ATOM
   1 C1            -0.0167     1.3790     0.0096 C.ar    
   2 C2             0.0021    -0.0041     0.0020 C.ar    
   3 C3             1.2063    -0.6845    -0.0131 C.ar    
   4 C4             2.3965     0.0141    -0.0202 C.ar    
   5 C5             2.3836     1.4075    -0.0126 C.ar    
   6 C6             1.1675     2.0878     0.0021 C.ar    
   7 C7             3.6599     2.1640    -0.0198 C.ar    
   8 C8             3.6660     3.5617    -0.0123 C.ar    
   9 C9             4.8755     4.2258    -0.0188 C.ar    
  10 N10            6.0139     3.5593    -0.0324 N.ar    
  11 C11            6.0520     2.2406    -0.0398 C.ar    
  12 C12            4.8889     1.4984    -0.0282 C.ar    
  13 C13           -1.2943    -0.7725     0.0107 C.3     
  14 C14           -2.1131    -0.4054    -1.2285 C.3     
  15 C15           -0.9976    -2.2734    -0.0002 C.3     
  16 C16           -2.0883    -0.4188     1.2698 C.3     
  17 H17           -0.9598     1.9053     0.0169 H       
  18 H18            1.2151    -1.7644    -0.0190 H       
  19 H19            3.3362    -0.5182    -0.0313 H       
  20 H20            1.1518     3.1677     0.0077 H       
  21 H21            2.7378     4.1137    -0.0019 H       
  22 H22            4.8904     5.3057    -0.0132 H       
  23 H23            7.0064     1.7352    -0.0509 H       
  24 H24            4.9275     0.4191    -0.0344 H       
  25 H25           -1.5474    -0.6573    -2.1255 H       
  26 H26           -3.0507    -0.9611    -1.2222 H       
  27 H27           -2.3245     0.6639    -1.2207 H       
  28 H28           -0.4142    -2.5349     0.8826 H       
  29 H29           -1.9352    -2.8292     0.0061 H       
  30 H30           -0.4319    -2.5254    -0.8972 H       
  31 H31           -2.2997     0.6505     1.2777 H       
  32 H32           -3.0260    -0.9745     1.2761 H       
  33 H33           -1.5050    -0.6803     2.1527 H       
@<TRIPOS>BOND
   1    1    2 ar
   2    1    6 ar
   3    1   17 1
   4    2    3 ar
   5    2   13 1
   6    3    4 ar
   7    3   18 1
   8    4    5 ar
   9    4   19 1
  10    5    6 ar
  11    5    7 1
  12    6   20 1
  13    7    8 ar
  14    7   12 ar
  15    8    9 ar
  16    8   21 1
  17    9   10 ar
  18    9   22 1
  19   10   11 ar
  20   11   12 ar
  21   11   23 1
  22   12   24 1
  23   13   14 1
  24   13   15 1
  25   13   16 1
  26   14   25 1
  27   14   26 1
  28   14   27 1
  29   15   28 1
  30   15   29 1
  31   15   30 1
  32   16   31 1
  33   16   32 1
  34   16   33 1

#	End of record

