#	Name: ASD01918277
#	Creating user name:	WinNT
#	Creation time:	15. 06. 2019 20:11

#	Modifying user name:	WinNT
#	Modification time:	15. 06. 2019 20:11

#	Program:	/corina/corina34_cracker 3.40 0067  02.08.2006

@<TRIPOS>MOLECULE
ASD01918277
  46   49    0    0    0
SMALL
NO_CHARGES


@<TRIPOS>ATOM
   1 F1            -0.0010    -0.0042     0.0346 F       
   2 C2            -0.0188     1.3467     0.0345 C.ar    
   3 C3             0.6417     2.0463     1.0329 C.ar    
   4 C4             0.6272     3.4245     1.0373 C.ar    
   5 C5            -0.0544     4.1163     0.0338 C.ar    
   6 C6            -0.7180     3.4067    -0.9694 C.ar    
   7 C7            -0.6926     2.0286    -0.9672 C.ar    
   8 C8            -0.0738     5.5934     0.0337 C.2     
   9 O9            -1.1315     6.1874    -0.0469 O.2     
  10 N10            1.0810     6.2826     0.1230 N.am    
  11 C11            1.0604     7.7312     0.0265 C.3     
  12 C12            1.4120     8.4540     1.3121 C.3     
  13 C13            2.8839     8.2183     1.6832 C.3     
  14 C14            2.9718     6.8740     2.3724 C.2     
  15 N15            3.3029     6.6245     3.6461 N.2     
  16 C16            3.2437     5.3351     3.8449 C.2     
  17 C17            3.5394     4.6338     5.1456 C.3     
  18 O18            2.3384     4.5265     5.9126 O.3     
  19 C19            2.4317     3.9146     7.1225 C.ar    
  20 C20            3.6550     3.4328     7.5650 C.ar    
  21 C21            3.7473     2.8116     8.7954 C.ar    
  22 C22            2.6215     2.6696     9.5856 C.ar    
  23 C23            1.4010     3.1486     9.1467 C.ar    
  24 C24            1.3047     3.7760     7.9197 C.ar    
  25 O25            2.8760     4.7362     2.6996 O.3     
  26 C26            2.7174     5.6954     1.7823 C.2     
  27 C27            2.3473     5.5569     0.3232 C.3     
  28 H28            1.1683     1.5103     1.8087 H       
  29 H29            1.1417     3.9685     1.8157 H       
  30 H30           -1.2466     3.9369    -1.7478 H       
  31 H31           -1.2017     1.4789    -1.7451 H       
  32 H32            1.7675     8.0358    -0.7452 H       
  33 H33            0.0626     8.0425    -0.2827 H       
  34 H34            1.2415     9.5226     1.1813 H       
  35 H35            0.7756     8.0854     2.1166 H       
  36 H36            3.4964     8.2124     0.7815 H       
  37 H37            3.2255     9.0031     2.3581 H       
  38 H38            3.9298     3.6371     4.9405 H       
  39 H39            4.2788     5.2053     5.7066 H       
  40 H40            4.5345     3.5428     6.9478 H       
  41 H41            4.6994     2.4363     9.1404 H       
  42 H42            2.6956     2.1834    10.5471 H       
  43 H43            0.5231     3.0362     9.7655 H       
  44 H44            0.3520     4.1539     7.5792 H       
  45 H45            2.2158     4.5037     0.0748 H       
  46 H46            3.1283     5.9924    -0.3000 H       
@<TRIPOS>BOND
   1    1    2 1
   2    2    7 ar
   3    2    3 ar
   4    3    4 ar
   5    3   28 1
   6    4    5 ar
   7    4   29 1
   8    5    6 ar
   9    5    8 1
  10    6    7 ar
  11    6   30 1
  12    7   31 1
  13    8    9 2
  14    8   10 am
  15   10   27 1
  16   10   11 1
  17   11   12 1
  18   11   32 1
  19   11   33 1
  20   12   13 1
  21   12   34 1
  22   12   35 1
  23   13   14 1
  24   13   36 1
  25   13   37 1
  26   14   26 2
  27   14   15 1
  28   15   16 2
  29   16   17 1
  30   16   25 1
  31   17   18 1
  32   17   38 1
  33   17   39 1
  34   18   19 1
  35   19   24 ar
  36   19   20 ar
  37   20   21 ar
  38   20   40 1
  39   21   22 ar
  40   21   41 1
  41   22   23 ar
  42   22   42 1
  43   23   24 ar
  44   23   43 1
  45   24   44 1
  46   25   26 1
  47   26   27 1
  48   27   45 1
  49   27   46 1

#	End of record

