#	Name: ASD03240410
#	Creating user name:	WinNT
#	Creation time:	15. 06. 2019 20:34

#	Modifying user name:	WinNT
#	Modification time:	15. 06. 2019 20:34

#	Program:	/corina/corina34_cracker 3.40 0067  02.08.2006

@<TRIPOS>MOLECULE
ASD03240410
  39   41    0    0    0
SMALL
NO_CHARGES


@<TRIPOS>ATOM
   1 C1            -0.0688     1.4761     0.0646 C.ar    
   2 C2            -0.1570     0.0986    -0.0076 C.ar    
   3 C3             0.6033     4.0529    -1.4916 C.ar    
   4 C4             1.3906     2.9286    -1.2833 C.ar    
   5 C5             1.2783     2.1488     0.0014 C.3     
   6 C6             0.7363     4.7407    -2.6845 C.ar    
   7 C7             1.6513     4.2836    -3.6313 C.ar    
   8 N8             2.3850     3.2043    -3.3933 N.ar    
   9 C9             2.2778     2.5310    -2.2651 C.ar    
  10 C10            1.8055     5.0094    -4.9156 C.2     
  11 C11           -1.3922    -0.5197     0.0498 C.ar    
  12 C12           -2.5405     0.2402     0.1796 C.ar    
  13 C13           -2.4521     1.6203     0.2519 C.ar    
  14 C14           -1.2160     2.2375     0.1890 C.ar    
  15 Cl15          -3.8925     2.5755     0.4148 Cl      
  16 C16            2.6565     4.6807    -5.9313 C.2     
  17 N17            2.4891     5.5880    -6.9130 N.pl3   
  18 N18            1.5126     6.5033    -6.5021 N.2     
  19 C19            1.0960     6.1604    -5.3123 C.2     
  20 Cl20          -4.0918    -0.5357     0.2512 Cl      
  21 C21            1.4297     3.0999     1.1902 C.3     
  22 C22            1.4406     2.2934     2.4904 C.3     
  23 N23            1.5860     3.2066     3.6318 N.3     
  24 H24            0.7394    -0.4950    -0.1093 H       
  25 H25           -0.1005     4.3808    -0.7408 H       
  26 H26            2.0635     1.3937     0.0379 H       
  27 H27            0.1392     5.6192    -2.8796 H       
  28 H28            2.8916     1.6568    -2.1061 H       
  29 H29           -1.4605    -1.5960    -0.0070 H       
  30 H30           -1.1463     3.3138     0.2454 H       
  31 H31            3.3406     3.8451    -5.9451 H       
  32 H32            2.9637     5.6044    -7.7588 H       
  33 H33            0.3442     6.6737    -4.7313 H       
  34 H34            2.3650     3.6518     1.0972 H       
  35 H35            0.5945     3.8001     1.2040 H       
  36 H36            0.5053     1.7415     2.5835 H       
  37 H37            2.2758     1.5932     2.4766 H       
  38 H38            1.5959     2.6977     4.5031 H       
  39 H39            2.4134     3.7760     3.5362 H       
@<TRIPOS>BOND
   1    1    2 ar
   2    1    5 1
   3    1   14 ar
   4    2   11 ar
   5    2   24 1
   6    3    4 ar
   7    3    6 ar
   8    3   25 1
   9    4    5 1
  10    4    9 ar
  11    5   21 1
  12    5   26 1
  13    6    7 ar
  14    6   27 1
  15    7    8 ar
  16    7   10 1
  17    8    9 ar
  18    9   28 1
  19   10   16 2
  20   10   19 1
  21   11   12 ar
  22   11   29 1
  23   12   13 ar
  24   12   20 1
  25   13   14 ar
  26   13   15 1
  27   14   30 1
  28   16   17 1
  29   16   31 1
  30   17   18 1
  31   17   32 1
  32   18   19 2
  33   19   33 1
  34   21   22 1
  35   21   34 1
  36   21   35 1
  37   22   23 1
  38   22   36 1
  39   22   37 1
  40   23   38 1
  41   23   39 1

#	End of record

