#	Name: ASD07480044
#	Creating user name:	WinNT
#	Creation time:	15. 06. 2019 21:11

#	Modifying user name:	WinNT
#	Modification time:	15. 06. 2019 21:11

#	Program:	/corina/corina34_cracker 3.40 0067  02.08.2006

@<TRIPOS>MOLECULE
ASD07480044
  54   57    0    0    0
SMALL
NO_CHARGES


@<TRIPOS>ATOM
   1 C1             0.4905     0.8862    -1.2576 C.ar    
   2 C2             0.5070    -0.4969    -1.0746 C.ar    
   3 N3            -0.6007    -1.1527    -0.7956 N.ar    
   4 C4            -1.7658    -0.5376    -0.6770 C.ar    
   5 C5            -1.8666     0.8462    -0.8456 C.ar    
   6 C6            -0.7251     1.5753    -1.1342 C.ar    
   7 N7            -3.1061     1.4884    -0.7184 N.am    
   8 C8            -3.1622     2.7674    -0.2969 C.2     
   9 O9            -2.1490     3.3328     0.0665 O.2     
  10 N10           -4.3415     3.4196    -0.2782 N.am    
  11 C11           -4.3847     4.7778     0.0556 C.ar    
  12 C12           -5.2791     5.6237    -0.5867 C.ar    
  13 C13           -5.3200     6.9650    -0.2548 C.ar    
  14 C14           -4.4706     7.4649     0.7166 C.ar    
  15 C15           -3.5783     6.6240     1.3581 C.ar    
  16 C16           -3.5371     5.2809     1.0336 C.ar    
  17 Cl17          -2.5144     7.2551     2.5761 Cl      
  18 Cl18          -6.4376     8.0234    -1.0577 Cl      
  19 O19           -2.8768    -1.2591    -0.3887 O.3     
  20 C20           -2.7110    -2.6693    -0.2283 C.3     
  21 C21            1.7361     1.6151    -1.5707 C.2     
  22 C22            1.6791     2.8820    -2.3112 C.2     
  23 O23            2.8098     1.1658    -1.2150 O.2     
  24 C24            0.5738     3.4517    -2.8761 C.2     
  25 C25            2.8008     3.7944    -2.5873 C.ar    
  26 C26            2.2567     4.8653    -3.3230 C.ar    
  27 N27            0.9159     4.6202    -3.4744 N.pl3   
  28 C28            4.1595     3.8048    -2.2922 C.ar    
  29 N29            4.8901     4.8241    -2.7158 N.ar    
  30 C30            4.3476     5.8124    -3.4037 C.ar    
  31 N31            3.0676     5.8455    -3.7076 N.ar    
  32 C32           -0.0174     5.4980    -4.1847 C.3     
  33 C33           -0.6497     4.7341    -5.3498 C.3     
  34 C34           -1.1140     5.9610    -3.2234 C.3     
  35 H35            1.4386    -1.0359    -1.1630 H       
  36 H36           -0.7712     2.6458    -1.2700 H       
  37 H37           -3.9234     1.0124    -0.9337 H       
  38 H38           -5.1604     2.9475    -0.4961 H       
  39 H39           -5.9420     5.2342    -1.3451 H       
  40 H40           -4.5039     8.5132     0.9742 H       
  41 H41           -2.8407     4.6250     1.5348 H       
  42 H42           -2.0159    -2.8628     0.5888 H       
  43 H43           -3.6748    -3.1249    -0.0009 H       
  44 H44           -2.3159    -3.0959    -1.1502 H       
  45 H45           -0.4221     3.0346    -2.8508 H       
  46 H46            4.6086     2.9995    -1.7297 H       
  47 H47            4.9796     6.6250    -3.7304 H       
  48 H48            0.5199     6.3655    -4.5679 H       
  49 H49            0.1316     4.4043    -6.0346 H       
  50 H50           -1.1870     3.8666    -4.9666 H       
  51 H51           -1.3441     5.3872    -5.8783 H       
  52 H52           -0.6636     6.5052    -2.3933 H       
  53 H53           -1.8085     6.6141    -3.7519 H       
  54 H54           -1.6513     5.0934    -2.8402 H       
@<TRIPOS>BOND
   1    1    2 ar
   2    1   21 1
   3    1    6 ar
   4    2    3 ar
   5    2   35 1
   6    3    4 ar
   7    4    5 ar
   8    4   19 1
   9    5    6 ar
  10    5    7 1
  11    6   36 1
  12    7    8 am
  13    7   37 1
  14    8    9 2
  15    8   10 am
  16   10   11 1
  17   10   38 1
  18   11   12 ar
  19   11   16 ar
  20   12   13 ar
  21   12   39 1
  22   13   14 ar
  23   13   18 1
  24   14   15 ar
  25   14   40 1
  26   15   16 ar
  27   15   17 1
  28   16   41 1
  29   19   20 1
  30   20   42 1
  31   20   43 1
  32   20   44 1
  33   21   22 1
  34   21   23 2
  35   22   24 2
  36   22   25 1
  37   24   27 1
  38   24   45 1
  39   25   26 ar
  40   25   28 ar
  41   26   27 1
  42   26   31 ar
  43   27   32 1
  44   28   29 ar
  45   28   46 1
  46   29   30 ar
  47   30   31 ar
  48   30   47 1
  49   32   33 1
  50   32   34 1
  51   32   48 1
  52   33   49 1
  53   33   50 1
  54   33   51 1
  55   34   52 1
  56   34   53 1
  57   34   54 1

#	End of record

