#	Name: ASD08070051
#	Creating user name:	WinNT
#	Creation time:	15. 06. 2019 21:14

#	Modifying user name:	WinNT
#	Modification time:	15. 06. 2019 21:14

#	Program:	/corina/corina34_cracker 3.40 0067  02.08.2006

@<TRIPOS>MOLECULE
ASD08070051
  41   43    0    0    0
SMALL
NO_CHARGES


@<TRIPOS>ATOM
   1 C1            -0.0169     1.3917     0.0097 C.ar    
   2 C2             0.0021    -0.0041     0.0020 C.ar    
   3 C3            -1.1845    -0.7103     0.0092 C.ar    
   4 C4            -2.4028    -0.0256     0.0242 C.ar    
   5 C5            -2.4149     1.3709     0.0319 C.ar    
   6 C6            -1.2276     2.0705     0.0198 C.ar    
   7 O7             1.2696     1.8438    -0.0002 O.3     
   8 C8             2.0762     0.7203     0.3996 C.3     
   9 O9             1.3020    -0.4216    -0.0122 O.3     
  10 C10           -3.6735    -0.7766     0.0314 C.2     
  11 O11           -3.6612    -1.9924     0.0243 O.2     
  12 N12           -4.8474    -0.1147     0.0459 N.am    
  13 C13           -6.1086    -0.8600     0.0530 C.3     
  14 C14           -6.4707    -1.2361     1.4912 C.3     
  15 C15           -7.2183     0.0095    -0.5415 C.3     
  16 C16           -6.9175     0.2820    -2.0167 C.3     
  17 C17           -8.0105     1.1384    -2.6024 C.ar    
  18 C18           -7.9039     2.5161    -2.5651 C.ar    
  19 C19           -9.1170     0.5462    -3.1819 C.ar    
  20 C20          -10.1196     1.3318    -3.7191 C.ar    
  21 C21          -10.0159     2.7096    -3.6763 C.ar    
  22 C22           -8.9065     3.3017    -3.1022 C.ar    
  23 H23           -1.1711    -1.7902     0.0029 H       
  24 H24           -3.3549     1.9027     0.0432 H       
  25 H25           -1.2392     3.1504     0.0258 H       
  26 H26            3.0373     0.7368    -0.1144 H       
  27 H27            2.2188     0.7166     1.4802 H       
  28 H28           -4.8573     0.8553     0.0516 H       
  29 H29           -5.9985    -1.7662    -0.5427 H       
  30 H30           -7.4090    -1.7906     1.4965 H       
  31 H31           -5.6801    -1.8555     1.9148 H       
  32 H32           -6.5808    -0.3299     2.0869 H       
  33 H33           -8.1726    -0.5101    -0.4553 H       
  34 H34           -7.2688     0.9543    -0.0005 H       
  35 H35           -5.9632     0.8015    -2.1030 H       
  36 H36           -6.8670    -0.6629    -2.5578 H       
  37 H37           -7.0375     2.9788    -2.1160 H       
  38 H38           -9.1980    -0.5302    -3.2153 H       
  39 H39          -10.9837     0.8691    -4.1725 H       
  40 H40          -10.7990     3.3234    -4.0964 H       
  41 H41           -8.8255     4.3782    -3.0689 H       
@<TRIPOS>BOND
   1    1    2 ar
   2    1    7 1
   3    1    6 ar
   4    2    3 ar
   5    2    9 1
   6    3    4 ar
   7    3   23 1
   8    4    5 ar
   9    4   10 1
  10    5    6 ar
  11    5   24 1
  12    6   25 1
  13    7    8 1
  14    8    9 1
  15    8   26 1
  16    8   27 1
  17   10   11 2
  18   10   12 am
  19   12   13 1
  20   12   28 1
  21   13   14 1
  22   13   15 1
  23   13   29 1
  24   14   30 1
  25   14   31 1
  26   14   32 1
  27   15   16 1
  28   15   33 1
  29   15   34 1
  30   16   17 1
  31   16   35 1
  32   16   36 1
  33   17   18 ar
  34   17   19 ar
  35   18   22 ar
  36   18   37 1
  37   19   20 ar
  38   19   38 1
  39   20   21 ar
  40   20   39 1
  41   21   22 ar
  42   21   40 1
  43   22   41 1

#	End of record

