#	Name: ASD01918036
#	Creating user name:	WinNT
#	Creation time:	15. 06. 2019 20:10

#	Modifying user name:	WinNT
#	Modification time:	15. 06. 2019 20:10

#	Program:	/corina/corina34_cracker 3.40 0067  02.08.2006

@<TRIPOS>MOLECULE
ASD01918036
  41   44    0    0    0
SMALL
NO_CHARGES


@<TRIPOS>ATOM
   1 N1             4.8262    -0.4050    -2.1389 N.ar    
   2 C2             5.2923     0.2907    -3.1568 C.ar    
   3 C3             5.1772     1.6736    -3.1849 C.ar    
   4 C4             4.5608     2.3226    -2.1217 C.ar    
   5 C5             4.0819     1.5531    -1.0669 C.ar    
   6 C6             4.2357     0.1747    -1.1127 C.ar    
   7 O7             3.4725     2.1431    -0.0053 O.3     
   8 C8             3.4500     3.5023     0.0439 C.2     
   9 N9             2.1949     5.5135    -0.0225 N.pl3   
  10 C10            2.2665     4.1538    -0.0661 C.2     
  11 C11            4.6507     4.2061     0.2132 C.2     
  12 C12            4.6244     5.5939     0.2630 C.2     
  13 C13            3.3312     6.2682     0.1352 C.2     
  14 C14            5.8647     6.3668     0.4401 C.2     
  15 N15            5.8191     7.7130     0.4860 N.am    
  16 C16            6.9755     8.4402     0.7588 C.ar    
  17 O17            6.9307     5.7905     0.5450 O.2     
  18 C18            1.1684     6.4046    -0.1052 C.2     
  19 N19            1.6810     7.6036    -0.0096 N.2     
  20 N20            2.9575     7.5323     0.1391 N.2     
  21 O21            5.6612     2.3836    -4.2379 O.3     
  22 N22            8.1359     7.8116     0.8647 N.ar    
  23 C23            6.9015     9.8201     0.9117 C.ar    
  24 C24            8.0579    10.5303     1.1824 C.ar    
  25 C25            9.2531     9.8329     1.2913 C.ar    
  26 C26            9.2542     8.4622     1.1220 C.ar    
  27 C27            6.2812     1.6419    -5.2904 C.3     
  28 H28           10.1824     7.9159     1.2018 H       
  29 H29            5.9543    10.3308     0.8200 H       
  30 H30            8.0311    11.6029     1.3059 H       
  31 H31           10.1735    10.3573     1.5019 H       
  32 H32            5.7698    -0.2216    -3.9789 H       
  33 H33            4.4566     3.3976    -2.1146 H       
  34 H34            3.8671    -0.4305    -0.2976 H       
  35 H35            1.3591     3.5816    -0.1916 H       
  36 H36            5.5864     3.6746     0.3043 H       
  37 H37            4.9810     8.1755     0.3290 H       
  38 H38            0.1232     6.1651    -0.2336 H       
  39 H39            6.6224     2.3277    -6.0659 H       
  40 H40            7.1329     1.0900    -4.8930 H       
  41 H41            5.5611     0.9425    -5.7150 H       
@<TRIPOS>BOND
   1    1    2 ar
   2    1    6 ar
   3    2    3 ar
   4    2   32 1
   5    3    4 ar
   6    3   21 1
   7    4    5 ar
   8    4   33 1
   9    5    6 ar
  10    5    7 1
  11    6   34 1
  12    7    8 1
  13    8   11 1
  14    8   10 2
  15    9   10 1
  16    9   18 1
  17    9   13 1
  18   10   35 1
  19   11   12 2
  20   11   36 1
  21   12   13 1
  22   12   14 1
  23   13   20 2
  24   14   15 am
  25   14   17 2
  26   15   16 1
  27   15   37 1
  28   16   23 ar
  29   16   22 ar
  30   18   19 2
  31   18   38 1
  32   19   20 1
  33   21   27 1
  34   22   26 ar
  35   23   24 ar
  36   23   29 1
  37   24   25 ar
  38   24   30 1
  39   25   26 ar
  40   25   31 1
  41   26   28 1
  42   27   39 1
  43   27   40 1
  44   27   41 1

#	End of record

