#	Name: ASD00840593
#	Creating user name:	WinNT
#	Creation time:	15. 06. 2019 18:39

#	Modifying user name:	WinNT
#	Modification time:	15. 06. 2019 18:39

#	Program:	/corina/corina34_cracker 3.40 0067  02.08.2006

@<TRIPOS>MOLECULE
ASD00840593
  91   96    0    0    0
SMALL
NO_CHARGES


@<TRIPOS>ATOM
   1 N1             0.9745     1.4196    -0.8149 N.ar    
   2 C2             1.2511     0.1293    -0.9026 C.ar    
   3 C3             1.1947    -0.6847     0.2217 C.ar    
   4 C4             0.8444    -0.1278     1.4391 C.ar    
   5 C5             0.5616     1.2304     1.4891 C.ar    
   6 C6             0.6376     1.9791     0.3318 C.ar    
   7 C7             1.5101    -2.1545     0.1169 C.3     
   8 C8             1.2535    -2.8476     1.4380 C.2     
   9 C9             0.6837    -2.8007    -0.9969 C.3     
  10 C10           -0.7782    -2.5154    -0.7676 C.2     
  11 N11           -1.7056    -3.0494    -1.5869 N.am    
  12 O12           -1.1202    -1.8052     0.1542 O.2     
  13 C13           -3.1231    -2.6885    -1.4490 C.3     
  14 C14           -3.9476    -3.9723    -1.3111 C.3     
  15 C15           -3.6464    -4.8967    -2.4930 C.3     
  16 C16           -2.1628    -5.2721    -2.4840 C.3     
  17 C17           -1.3174    -3.9988    -2.6389 C.3     
  18 C18           -4.4939    -6.1652    -2.3768 C.3     
  19 C19           -5.9788    -5.7913    -2.3874 C.3     
  20 C20           -6.8215    -7.0675    -2.3324 C.3     
  21 N21           -6.5037    -7.9157    -3.4882 N.3     
  22 C22           -5.0939    -8.3263    -3.4739 C.3     
  23 C23           -4.1996    -7.0877    -3.5630 C.3     
  24 C24           -7.3919    -9.0845    -3.5436 C.3     
  25 O25            0.1898    -2.9263     2.0155 O.2     
  26 N26            2.4255    -3.3589     1.8510 N.am    
  27 C27            2.9872    -2.3630    -0.1269 C.ar    
  28 C28            3.4628    -3.0924     0.9558 C.ar    
  29 C29            3.8303    -1.9807    -1.1458 C.ar    
  30 C30            5.1712    -2.3236    -1.0986 C.ar    
  31 C31            5.6582    -3.0509    -0.0242 C.ar    
  32 C32            4.8123    -3.4349     0.9988 C.ar    
  33 Cl33           6.2383    -1.8444    -2.3813 Cl      
  34 F34            6.9661    -3.3862     0.0233 F       
  35 C35            2.3412    -5.9073     2.8867 C.ar    
  36 C36            1.0874    -6.3325     2.4729 C.ar    
  37 C37            3.3751    -6.8168     3.0005 C.ar    
  38 C38            3.1608    -8.1495     2.7018 C.ar    
  39 C39            1.9117    -8.5759     2.2891 C.ar    
  40 C40            0.8748    -7.6707     2.1742 C.ar    
  41 H41            1.7469    -9.6176     2.0563 H       
  42 O42            0.0688    -5.4399     2.3607 O.3     
  43 C43           -1.1950    -5.9486     1.9292 C.3     
  44 C44           -2.2095    -4.8052     1.8634 C.3     
  45 S45            2.6171    -4.2076     3.2600 S.o2    
  46 O46            3.9883    -4.0921     3.6146 O.2     
  47 O47            1.5564    -3.8076     4.1168 O.2     
  48 O48            1.5927    -0.4046    -2.1022 O.3     
  49 C49            2.0543    -0.2787    -4.4711 C.3     
  50 C50            1.5242     0.4581    -3.2394 C.3     
  51 H51            0.7920    -0.7360     2.3300 H       
  52 H52            0.2848     1.6963     2.4233 H       
  53 H53            0.4189     3.0362     0.3653 H       
  54 H54            0.9874    -2.3899    -1.9597 H       
  55 H55            0.8485    -3.8781    -0.9932 H       
  56 H56           -3.2582    -2.0704    -0.5615 H       
  57 H57           -3.4479    -2.1388    -2.3325 H       
  58 H58           -3.6853    -4.4748    -0.3801 H       
  59 H59           -5.0089    -3.7241    -1.3046 H       
  60 H60           -3.8858    -4.3844    -3.4249 H       
  61 H61           -1.9173    -5.7624    -1.5420 H       
  62 H62           -1.9539    -5.9491    -3.3124 H       
  63 H63           -1.4961    -3.5586    -3.6199 H       
  64 H64           -0.2611    -4.2465    -2.5342 H       
  65 H65           -4.2544    -6.6793    -1.4461 H       
  66 H66           -6.2035    -5.1691    -1.5210 H       
  67 H67           -6.2093    -5.2420    -3.3002 H       
  68 H68           -6.6006    -7.6092    -1.4127 H       
  69 H69           -7.8793    -6.8054    -2.3541 H       
  70 H70           -4.8811    -8.8621    -2.5488 H       
  71 H71           -4.8969    -8.9785    -4.3247 H       
  72 H72           -4.4021    -6.5588    -4.4943 H       
  73 H73           -3.1531    -7.3917    -3.5365 H       
  74 H74           -8.4262    -8.7511    -3.6286 H       
  75 H75           -7.1349    -9.6955    -4.4088 H       
  76 H76           -7.2737    -9.6740    -2.6344 H       
  77 H77            3.4463    -1.4143    -1.9813 H       
  78 H78            5.1983    -4.0013     1.8334 H       
  79 H79            4.3515    -6.4863     3.3226 H       
  80 H80            3.9704    -8.8588     2.7907 H       
  81 H81           -0.1007    -8.0043     1.8525 H       
  82 H82           -1.0881    -6.3967     0.9413 H       
  83 H83           -1.5431    -6.7030     2.6347 H       
  84 H84           -2.3164    -4.3570     2.8513 H       
  85 H85           -1.8614    -4.0507     1.1579 H       
  86 H86           -3.1734    -5.1932     1.5342 H       
  87 H87            1.3975    -1.1170    -4.7036 H       
  88 H88            2.0840     0.4056    -5.3190 H       
  89 H89            3.0589    -0.6496    -4.2682 H       
  90 H90            0.4887     0.7528    -3.4100 H       
  91 H91            2.1297     1.3462    -3.0587 H       
@<TRIPOS>BOND
   1    1    2 ar
   2    1    6 ar
   3    2    3 ar
   4    2   48 1
   5    3    4 ar
   6    3    7 1
   7    4    5 ar
   8    4   51 1
   9    5    6 ar
  10    5   52 1
  11    6   53 1
  12    7    8 1
  13    7    9 1
  14    7   27 1
  15    8   25 2
  16    8   26 am
  17    9   10 1
  18    9   54 1
  19    9   55 1
  20   10   11 am
  21   10   12 2
  22   11   13 1
  23   11   17 1
  24   13   14 1
  25   13   56 1
  26   13   57 1
  27   14   15 1
  28   14   58 1
  29   14   59 1
  30   15   16 1
  31   15   18 1
  32   15   60 1
  33   16   17 1
  34   16   61 1
  35   16   62 1
  36   17   63 1
  37   17   64 1
  38   18   19 1
  39   18   23 1
  40   18   65 1
  41   19   20 1
  42   19   66 1
  43   19   67 1
  44   20   21 1
  45   20   68 1
  46   20   69 1
  47   21   22 1
  48   21   24 1
  49   22   23 1
  50   22   70 1
  51   22   71 1
  52   23   72 1
  53   23   73 1
  54   24   74 1
  55   24   75 1
  56   24   76 1
  57   26   45 am
  58   26   28 1
  59   27   28 ar
  60   27   29 ar
  61   28   32 ar
  62   29   30 ar
  63   29   77 1
  64   30   31 ar
  65   30   33 1
  66   31   32 ar
  67   31   34 1
  68   32   78 1
  69   35   36 ar
  70   35   37 ar
  71   35   45 1
  72   36   42 1
  73   36   40 ar
  74   37   38 ar
  75   37   79 1
  76   38   39 ar
  77   38   80 1
  78   39   40 ar
  79   39   41 1
  80   40   81 1
  81   42   43 1
  82   43   44 1
  83   43   82 1
  84   43   83 1
  85   44   84 1
  86   44   85 1
  87   44   86 1
  88   45   46 2
  89   45   47 2
  90   48   50 1
  91   49   50 1
  92   49   87 1
  93   49   88 1
  94   49   89 1
  95   50   90 1
  96   50   91 1

#	End of record

