#	Name: ASD01350062
#	Creating user name:	WinNT
#	Creation time:	15. 06. 2019 19:16

#	Modifying user name:	WinNT
#	Modification time:	15. 06. 2019 19:16

#	Program:	/corina/corina34_cracker 3.40 0067  02.08.2006

@<TRIPOS>MOLECULE
ASD01350062
  68   70    0    0    0
SMALL
NO_CHARGES


@<TRIPOS>ATOM
   1 C1             0.0659     1.5167    -0.0568 C.3     
   2 C2             0.0945    -0.0130    -0.0669 C.3     
   3 C3             0.8085    -0.5181     1.1884 C.3     
   4 C4             0.8371    -2.0478     1.1783 C.3     
   5 C5             1.5511    -2.5529     2.4336 C.3     
   6 C6             1.5797    -4.0826     2.4235 C.3     
   7 C7             2.2937    -4.5877     3.6789 C.3     
   8 C8             2.3223    -6.1174     3.6687 C.3     
   9 C9             3.0363    -6.6225     4.9241 C.3     
  10 C10            3.0644    -8.1292     4.9141 C.2     
  11 O11            2.5627    -8.7390     3.9934 O.2     
  12 N12            3.6470    -8.7991     5.9281 N.am    
  13 C13            3.5761   -10.1973     5.9762 C.ar    
  14 C14            4.7330   -10.9588     5.8325 C.ar    
  15 C15            4.6803   -12.3346     5.8810 C.ar    
  16 C16            3.4642   -12.9827     6.0749 C.ar    
  17 C17            2.2972   -12.2138     6.2120 C.ar    
  18 C18            2.3565   -10.8226     6.1721 C.ar    
  19 C19            1.0091   -12.9164     6.3970 C.2     
  20 O20           -0.0017   -12.3332     6.7425 O.2     
  21 C21            1.0259   -14.3715     6.1354 C.ar    
  22 C22            2.2679   -15.0138     6.0105 C.ar    
  23 O23            3.4219   -14.3292     6.1356 O.3     
  24 C24            2.2947   -16.3821     5.7563 C.ar    
  25 C25            1.1163   -17.0862     5.6351 C.ar    
  26 C26           -0.1087   -16.4481     5.7636 C.ar    
  27 C27           -0.1600   -15.0939     6.0137 C.ar    
  28 C28            4.3545    -8.0649     6.9801 C.3     
  29 C29            3.3783    -7.7212     8.1070 C.3     
  30 N30            4.0877    -6.9851     9.1619 N.3     
  31 C31            3.1449    -6.4332    10.1439 C.3     
  32 C32            5.0900    -7.8372     9.8156 C.3     
  33 H33            1.0865     1.8991    -0.0406 H       
  34 H34           -0.4428     1.8766    -0.9511 H       
  35 H35           -0.4664     1.8643     0.8286 H       
  36 H36           -0.9261    -0.3953    -0.0831 H       
  37 H37            0.6268    -0.3606    -0.9524 H       
  38 H38            1.8291    -0.1357     1.2046 H       
  39 H39            0.2762    -0.1705     2.0738 H       
  40 H40           -0.1835    -2.4301     1.1621 H       
  41 H41            1.3694    -2.3954     0.2929 H       
  42 H42            2.5717    -2.1705     2.4498 H       
  43 H43            1.0188    -2.2053     3.3191 H       
  44 H44            0.5591    -4.4649     2.4073 H       
  45 H45            2.1120    -4.4302     1.5381 H       
  46 H46            3.3143    -4.2053     3.6950 H       
  47 H47            1.7614    -4.2401     4.5643 H       
  48 H48            1.3016    -6.4997     3.6525 H       
  49 H49            2.8545    -6.4650     2.7833 H       
  50 H50            4.0569    -6.2401     4.9402 H       
  51 H51            2.5040    -6.2749     5.8095 H       
  52 H52            5.6818   -10.4656     5.6811 H       
  53 H53            5.5859   -12.9121     5.7679 H       
  54 H54            1.4565   -10.2363     6.2843 H       
  55 H55            3.2408   -16.8927     5.6535 H       
  56 H56            1.1469   -18.1475     5.4375 H       
  57 H57           -1.0237   -17.0135     5.6674 H       
  58 H58           -1.1128   -14.5954     6.1133 H       
  59 H59            5.1616    -8.6825     7.3743 H       
  60 H60            4.7693    -7.1460     6.5659 H       
  61 H61            2.5713    -7.1036     7.7128 H       
  62 H62            2.9635    -8.6401     8.5212 H       
  63 H63            2.5815    -7.2455    10.6030 H       
  64 H64            3.6965    -5.8933    10.9136 H       
  65 H65            2.4572    -5.7512     9.6439 H       
  66 H66            5.8164    -8.1760     9.0768 H       
  67 H67            5.6004    -7.2675    10.5922 H       
  68 H68            4.5970    -8.7004    10.2628 H       
@<TRIPOS>BOND
   1    1    2 1
   2    1   33 1
   3    1   34 1
   4    1   35 1
   5    2    3 1
   6    2   36 1
   7    2   37 1
   8    3    4 1
   9    3   38 1
  10    3   39 1
  11    4    5 1
  12    4   40 1
  13    4   41 1
  14    5    6 1
  15    5   42 1
  16    5   43 1
  17    6    7 1
  18    6   44 1
  19    6   45 1
  20    7    8 1
  21    7   46 1
  22    7   47 1
  23    8    9 1
  24    8   48 1
  25    8   49 1
  26    9   10 1
  27    9   50 1
  28    9   51 1
  29   10   11 2
  30   10   12 am
  31   12   13 1
  32   12   28 1
  33   13   14 ar
  34   13   18 ar
  35   14   15 ar
  36   14   52 1
  37   15   16 ar
  38   15   53 1
  39   16   17 ar
  40   16   23 1
  41   17   18 ar
  42   17   19 1
  43   18   54 1
  44   19   20 2
  45   19   21 1
  46   21   22 ar
  47   21   27 ar
  48   22   23 1
  49   22   24 ar
  50   24   25 ar
  51   24   55 1
  52   25   26 ar
  53   25   56 1
  54   26   27 ar
  55   26   57 1
  56   27   58 1
  57   28   29 1
  58   28   59 1
  59   28   60 1
  60   29   30 1
  61   29   61 1
  62   29   62 1
  63   30   31 1
  64   30   32 1
  65   31   63 1
  66   31   64 1
  67   31   65 1
  68   32   66 1
  69   32   67 1
  70   32   68 1

#	End of record

