#	Name: ASD01911412
#	Creating user name:	WinNT
#	Creation time:	15. 06. 2019 19:57

#	Modifying user name:	WinNT
#	Modification time:	15. 06. 2019 19:57

#	Program:	/corina/corina34_cracker 3.40 0067  02.08.2006

@<TRIPOS>MOLECULE
ASD01911412
  47   50    0    0    0
SMALL
NO_CHARGES


@<TRIPOS>ATOM
   1 C1            -0.0167     1.3797     0.0096 C.ar    
   2 C2             0.0021    -0.0041     0.0020 C.ar    
   3 C3             1.2058    -0.6867    -0.0127 C.ar    
   4 C4             2.3967     0.0087    -0.0204 C.ar    
   5 C5             2.3859     1.4064    -0.0133 C.ar    
   6 C6             1.1660     2.0888     0.0021 C.ar    
   7 C7             3.6183     2.1356    -0.0212 C.1     
   8 C8             4.6286     2.7335    -0.0276 C.1     
   9 C9             5.8610     3.4627    -0.0355 C.ar    
  10 C10            5.8448     4.8649    -0.0283 C.ar    
  11 C11            7.0381     5.5609    -0.0360 C.ar    
  12 C12            8.2639     4.8600    -0.0511 C.ar    
  13 C13            8.2713     3.4710    -0.0581 C.ar    
  14 C14            7.0786     2.7755    -0.0447 C.ar    
  15 C15            7.3939     6.9961    -0.0321 C.2     
  16 N16            8.7346     7.1039    -0.0442 N.am    
  17 C17            9.3184     5.8923    -0.0558 C.2     
  18 O18           10.5150     5.6826    -0.0674 O.2     
  19 O19            6.6078     7.9218    -0.0204 O.2     
  20 C20            9.4635     8.3747    -0.0454 C.3     
  21 C21            9.7308     8.8107     1.3966 C.3     
  22 N22           10.4616    10.0850     1.3954 N.3     
  23 C23           10.5297    10.6546     2.7490 C.3     
  24 C24           11.3486    11.9476     2.7122 C.3     
  25 O25           10.7605    12.8519     1.7732 O.3     
  26 C26           10.6790    12.3295     0.4443 C.3     
  27 C27            9.8533    11.0404     0.4582 C.3     
  28 H28           -0.9600     1.9056     0.0170 H       
  29 H29           -0.9274    -0.5540     0.0080 H       
  30 H30            1.2126    -1.7666    -0.0179 H       
  31 H31            3.3354    -0.5254    -0.0316 H       
  32 H32            1.1499     3.1687     0.0074 H       
  33 H33            4.9052     5.3974    -0.0172 H       
  34 H34            9.2091     2.9355    -0.0700 H       
  35 H35            7.0861     1.6955    -0.0498 H       
  36 H36           10.4115     8.2494    -0.5686 H       
  37 H37            8.8675     9.1349    -0.5503 H       
  38 H38            8.7828     8.9361     1.9199 H       
  39 H39           10.3267     8.0505     1.9016 H       
  40 H40            9.5221    10.8719     3.1035 H       
  41 H41           11.0065     9.9408     3.4208 H       
  42 H42           11.3538    12.4035     3.7023 H       
  43 H43           12.3711    11.7223     2.4091 H       
  44 H44           10.2000    13.0616    -0.2058 H       
  45 H45           11.6820    12.1154     0.0753 H       
  46 H46            9.8364    10.6082    -0.5423 H       
  47 H47            8.8349    11.2639     0.7761 H       
@<TRIPOS>BOND
   1    1    2 ar
   2    1    6 ar
   3    1   28 1
   4    2    3 ar
   5    2   29 1
   6    3    4 ar
   7    3   30 1
   8    4    5 ar
   9    4   31 1
  10    5    6 ar
  11    5    7 1
  12    6   32 1
  13    7    8 3
  14    8    9 1
  15    9   10 ar
  16    9   14 ar
  17   10   11 ar
  18   10   33 1
  19   11   12 ar
  20   11   15 1
  21   12   13 ar
  22   12   17 1
  23   13   14 ar
  24   13   34 1
  25   14   35 1
  26   15   16 am
  27   15   19 2
  28   16   17 am
  29   16   20 1
  30   17   18 2
  31   20   21 1
  32   20   36 1
  33   20   37 1
  34   21   22 1
  35   21   38 1
  36   21   39 1
  37   22   23 1
  38   22   27 1
  39   23   24 1
  40   23   40 1
  41   23   41 1
  42   24   25 1
  43   24   42 1
  44   24   43 1
  45   25   26 1
  46   26   27 1
  47   26   44 1
  48   26   45 1
  49   27   46 1
  50   27   47 1

#	End of record

