#	Name: ASD02508030
#	Creating user name:	WinNT
#	Creation time:	15. 06. 2019 20:23

#	Modifying user name:	WinNT
#	Modification time:	15. 06. 2019 20:23

#	Program:	/corina/corina34_cracker 3.40 0067  02.08.2006

@<TRIPOS>MOLECULE
ASD02508030
  50   52    0    0    0
SMALL
NO_CHARGES


@<TRIPOS>ATOM
   1 S1             0.0937     1.6560    -0.0108 S.o2    
   2 N2             0.0617     0.0003    -0.0076 N.am    
   3 C3             0.2045    -0.7481     1.2491 C.3     
   4 C4            -0.1162    -0.7468    -1.2606 C.3     
   5 C5            -1.3187    -1.6859    -1.1048 C.3     
   6 N6            -1.1702    -2.4345     0.1512 N.am    
   7 C7            -0.9986    -1.6873     1.3997 C.3     
   8 S8            -1.2033    -4.0902     0.1546 S.o2    
   9 O9            -1.5897    -4.4811     1.4650 O.2     
  10 O10           -1.9125    -4.4797    -1.0136 O.2     
  11 C11           -0.3736     0.2307    -2.4092 C.3     
  12 C12           -2.6093    -0.8652    -1.0639 C.3     
  13 C13            1.7421     2.1451    -0.3956 C.ar    
  14 O14           -0.7135     2.0708    -1.1042 O.2     
  15 O15           -0.1436     2.0645     1.3294 O.2     
  16 C16            2.1150     2.3398    -1.7127 C.ar    
  17 C17            3.4078     2.7241    -2.0191 C.ar    
  18 C18            4.3307     2.9147    -1.0098 C.ar    
  19 C19            3.9593     2.7200     0.3147 C.ar    
  20 C20            2.6588     2.3391     0.6193 C.ar    
  21 C21            0.4548    -4.6454    -0.0618 C.ar    
  22 N22            4.8904     2.9114     1.3381 N.pl3   
  23 C23            1.2615    -4.8644     1.0416 C.ar    
  24 C24            2.5645    -5.3007     0.8703 C.ar    
  25 C25            3.0596    -5.5176    -0.4016 C.ar    
  26 C26            2.2551    -5.2993    -1.5040 C.ar    
  27 C27            0.9500    -4.8684    -1.3350 C.ar    
  28 F28            0.1637    -4.6555    -2.4127 F       
  29 F29            0.7778    -4.6521     2.2850 F       
  30 H30            1.1241    -1.3328     1.2242 H       
  31 H31            0.2329    -0.0526     2.0879 H       
  32 H32            0.7800    -1.3314    -1.4684 H       
  33 H33           -1.3509    -2.3813    -1.9435 H       
  34 H34           -0.8143    -2.3818     2.2193 H       
  35 H35           -1.8976    -1.1060     1.6046 H       
  36 H36            0.4099     0.9884    -2.4239 H       
  37 H37           -0.3725    -0.3114    -3.3548 H       
  38 H38           -1.3414     0.7115    -2.2671 H       
  39 H39           -2.7095    -0.2993    -1.9901 H       
  40 H40           -3.4623    -1.5348    -0.9531 H       
  41 H41           -2.5756    -0.1769    -0.2194 H       
  42 H42            1.3953     2.1910    -2.5040 H       
  43 H43            3.6959     2.8750    -3.0489 H       
  44 H44            5.3401     3.2145    -1.2497 H       
  45 H45            2.3668     2.1869     1.6478 H       
  46 H46            5.7974     3.1807     1.1245 H       
  47 H47            4.6299     2.7751     2.2625 H       
  48 H48            3.1941    -5.4713     1.7311 H       
  49 H49            4.0761    -5.8576    -0.5343 H       
  50 H50            2.6433    -5.4687    -2.4975 H       
@<TRIPOS>BOND
   1    1    2 am
   2    1   13 1
   3    1   14 2
   4    1   15 2
   5    2    3 1
   6    2    4 1
   7    3    7 1
   8    3   30 1
   9    3   31 1
  10    4    5 1
  11    4   11 1
  12    4   32 1
  13    5    6 1
  14    5   12 1
  15    5   33 1
  16    6    7 1
  17    6    8 am
  18    7   34 1
  19    7   35 1
  20    8    9 2
  21    8   10 2
  22    8   21 1
  23   11   36 1
  24   11   37 1
  25   11   38 1
  26   12   39 1
  27   12   40 1
  28   12   41 1
  29   13   16 ar
  30   13   20 ar
  31   16   17 ar
  32   16   42 1
  33   17   18 ar
  34   17   43 1
  35   18   19 ar
  36   18   44 1
  37   19   20 ar
  38   19   22 1
  39   20   45 1
  40   21   23 ar
  41   21   27 ar
  42   22   46 1
  43   22   47 1
  44   23   24 ar
  45   23   29 1
  46   24   25 ar
  47   24   48 1
  48   25   26 ar
  49   25   49 1
  50   26   27 ar
  51   26   50 1
  52   27   28 1

#	End of record

