#	Name: ASD01882391
#	Creating user name:	WinNT
#	Creation time:	15. 06. 2019 19:44

#	Modifying user name:	WinNT
#	Modification time:	15. 06. 2019 19:44

#	Program:	/corina/corina34_cracker 3.40 0067  02.08.2006

@<TRIPOS>MOLECULE
ASD01882391
  51   55    0    0    0
SMALL
NO_CHARGES


@<TRIPOS>ATOM
   1 N1            -0.0178     1.4650     0.0101 N.pl3   
   2 C2             0.0086     0.0100    -0.1919 C.3     
   3 C3             0.7979    -0.6325     0.9532 C.3     
   4 C4             2.1817     0.0153     1.0399 C.3     
   5 C5             2.0299     1.5090     1.3364 C.3     
   6 C6             1.2546     2.1757     0.1957 C.3     
   7 N7             2.9513    -0.6195     2.1127 N.pl3   
   8 C8             4.3492    -0.6050     2.0733 C.ar    
   9 C9             5.0817    -1.2072     3.0912 C.ar    
  10 C10            6.4633    -1.1905     3.0483 C.ar    
  11 C11            7.1162    -0.5755     1.9952 C.ar    
  12 C12            6.3904     0.0236     0.9828 C.ar    
  13 C13            5.0089     0.0054     1.0158 C.ar    
  14 F14            4.4439    -1.8071     4.1201 F       
  15 C15           -2.7171     3.7810    -0.9127 C.2     
  16 C16           -1.4902     3.0950    -0.9432 C.2     
  17 C17           -1.2259     2.1583     0.0196 C.2     
  18 C18           -2.1857     1.8993     1.0217 C.2     
  19 C19           -3.3550     2.5689     1.0320 C.2     
  20 N20           -3.6288     3.5043     0.0769 N.pl3   
  21 N21           -4.4199     5.0260    -1.2266 N.2     
  22 N22           -3.2537     4.7207    -1.6763 N.2     
  23 C23           -4.6966     4.3181    -0.1632 C.2     
  24 C24           -5.9631     4.3899     0.6504 C.3     
  25 C25           -5.8004     5.4350     1.7559 C.3     
  26 C26           -7.0232     5.7427     2.6226 C.3     
  27 C27           -5.8543     4.9453     3.2045 C.3     
  28 Cl28          -0.3259     3.4308    -2.1863 Cl      
  29 H29           -1.0104    -0.3770    -0.1955 H       
  30 H30            0.4918    -0.2184    -1.1419 H       
  31 H31            0.2655    -0.4805     1.8921 H       
  32 H32            0.9073    -1.7006     0.7652 H       
  33 H33            2.7040    -0.1156     0.0922 H       
  34 H34            1.4860     1.6408     2.2717 H       
  35 H35            3.0162     1.9651     1.4212 H       
  36 H36            1.8394     2.1240    -0.7227 H       
  37 H37            1.0578     3.2177     0.4478 H       
  38 H38            2.4914    -1.0499     2.8504 H       
  39 H39            7.0334    -1.6576     3.8378 H       
  40 H40            8.1957    -0.5630     1.9642 H       
  41 H41            6.9038     0.5028     0.1623 H       
  42 H42            4.4432     0.4700     0.2218 H       
  43 H43           -1.9821     1.1611     1.7833 H       
  44 H44           -4.0825     2.3631     1.8032 H       
  45 H45           -6.7946     4.6710     0.0042 H       
  46 H46           -6.1634     3.4162     1.0975 H       
  47 H47           -5.1248     6.2594     1.5278 H       
  48 H48           -7.1518     6.7696     2.9649 H       
  49 H49           -7.9435     5.2007     2.4051 H       
  50 H50           -6.0056     3.8786     3.3698 H       
  51 H51           -5.2139     5.4474     3.9296 H       
@<TRIPOS>BOND
   1    1    2 1
   2    1    6 1
   3    1   17 1
   4    2    3 1
   5    2   29 1
   6    2   30 1
   7    3    4 1
   8    3   31 1
   9    3   32 1
  10    4    5 1
  11    4    7 1
  12    4   33 1
  13    5    6 1
  14    5   34 1
  15    5   35 1
  16    6   36 1
  17    6   37 1
  18    7    8 1
  19    7   38 1
  20    8    9 ar
  21    8   13 ar
  22    9   10 ar
  23    9   14 1
  24   10   11 ar
  25   10   39 1
  26   11   12 ar
  27   11   40 1
  28   12   13 ar
  29   12   41 1
  30   13   42 1
  31   15   16 1
  32   15   20 1
  33   15   22 2
  34   16   17 2
  35   16   28 1
  36   17   18 1
  37   18   19 2
  38   18   43 1
  39   19   20 1
  40   19   44 1
  41   20   23 1
  42   21   22 1
  43   21   23 2
  44   23   24 1
  45   24   25 1
  46   24   45 1
  47   24   46 1
  48   25   26 1
  49   25   27 1
  50   25   47 1
  51   26   27 1
  52   26   48 1
  53   26   49 1
  54   27   50 1
  55   27   51 1

#	End of record

