#	Name: ASD01901525
#	Creating user name:	WinNT
#	Creation time:	15. 06. 2019 19:53

#	Modifying user name:	WinNT
#	Modification time:	15. 06. 2019 19:53

#	Program:	/corina/corina34_cracker 3.40 0067  02.08.2006

@<TRIPOS>MOLECULE
ASD01901525
  44   48    0    0    0
SMALL
NO_CHARGES


@<TRIPOS>ATOM
   1 F1             0.0021    -0.0041     0.0020 F       
   2 C2            -0.0162     1.3468     0.0094 C.ar    
   3 C3            -1.2209     2.0196     0.0303 C.ar    
   4 C4            -1.2389     3.4173     0.0380 C.ar    
   5 C5            -0.0356     4.1285     0.0245 C.ar    
   6 C6             1.1653     3.4491     0.0036 C.ar    
   7 F7             2.3288     4.1357    -0.0094 F       
   8 C8             1.1795     2.0579     0.0018 C.ar    
   9 N9             2.4019     1.3708    -0.0135 N.am    
  10 C10            3.0737     0.9871     1.0954 C.2     
  11 O11            2.7075     1.0806     2.2474 O.2     
  12 C12            4.3746     0.4180     0.5922 C.3     
  13 C13            4.5743    -1.0550     1.0142 C.3     
  14 C14            5.3021    -1.6001    -0.2082 C.ar    
  15 C15            6.1225    -2.6892    -0.3841 C.ar    
  16 C16            6.6787    -2.9445    -1.6258 C.ar    
  17 C17            6.4077    -2.1026    -2.6885 C.ar    
  18 C18            5.5771    -1.0130    -2.5202 C.ar    
  19 C19            5.0060    -0.7547    -1.2797 C.ar    
  20 N20            4.1055     0.2319    -0.8621 N.am    
  21 C21            3.0501     1.0059    -1.1311 C.2     
  22 O22            2.7197     1.3417    -2.2515 O.2     
  23 C23           -2.4871     4.1189     0.0591 C.1     
  24 C24           -3.5104     4.6940     0.0765 C.1     
  25 C25           -4.7585     5.3956     0.0976 C.ar    
  26 C26           -5.9625     4.6863     0.1165 C.ar    
  27 C27           -7.1607     5.3689     0.1367 C.ar    
  28 C28           -7.1728     6.7526     0.1380 C.ar    
  29 C29           -5.9846     7.4618     0.1190 C.ar    
  30 C30           -4.7785     6.7929     0.1053 C.ar    
  31 H31           -2.1487     1.4669     0.0403 H       
  32 H32           -0.0458     5.2084     0.0300 H       
  33 H33            5.2320     1.0575     0.8015 H       
  34 H34            5.1948    -1.1283     1.9074 H       
  35 H35            3.6175    -1.5565     1.1593 H       
  36 H36            6.3335    -3.3457     0.4471 H       
  37 H37            7.3236    -3.7997    -1.7641 H       
  38 H38            6.8482    -2.2982    -3.6550 H       
  39 H39            5.3704    -0.3595    -3.3548 H       
  40 H40           -5.9546     3.6063     0.1148 H       
  41 H41           -8.0919     4.8221     0.1513 H       
  42 H42           -8.1141     7.2818     0.1536 H       
  43 H43           -6.0017     8.5416     0.1194 H       
  44 H44           -3.8519     7.3477     0.0957 H       
@<TRIPOS>BOND
   1    1    2 1
   2    2    8 ar
   3    2    3 ar
   4    3    4 ar
   5    3   31 1
   6    4    5 ar
   7    4   23 1
   8    5    6 ar
   9    5   32 1
  10    6    7 1
  11    6    8 ar
  12    8    9 1
  13    9   21 am
  14    9   10 am
  15   10   11 2
  16   10   12 1
  17   12   20 1
  18   12   13 1
  19   12   33 1
  20   13   14 1
  21   13   34 1
  22   13   35 1
  23   14   19 ar
  24   14   15 ar
  25   15   16 ar
  26   15   36 1
  27   16   17 ar
  28   16   37 1
  29   17   18 ar
  30   17   38 1
  31   18   19 ar
  32   18   39 1
  33   19   20 1
  34   20   21 am
  35   21   22 2
  36   23   24 3
  37   24   25 1
  38   25   30 ar
  39   25   26 ar
  40   26   27 ar
  41   26   40 1
  42   27   28 ar
  43   27   41 1
  44   28   29 ar
  45   28   42 1
  46   29   30 ar
  47   29   43 1
  48   30   44 1

#	End of record

