#	Name: ASD00845374
#	Creating user name:	WinNT
#	Creation time:	15. 06. 2019 18:52

#	Modifying user name:	WinNT
#	Modification time:	15. 06. 2019 18:52

#	Program:	/corina/corina34_cracker 3.40 0067  02.08.2006

@<TRIPOS>MOLECULE
ASD00845374
  87   92    0    0    0
SMALL
NO_CHARGES


@<TRIPOS>ATOM
   1 F1            -0.0762    -3.1158     4.7249 F       
   2 C2            -0.0167     1.3829     0.0096 C.ar    
   3 C3             0.0021    -0.0041     0.0020 C.ar    
   4 C4             1.2143    -0.6791    -0.0132 C.ar    
   5 C5             2.3989     0.0312    -0.0207 C.ar    
   6 C6             2.3774     1.4139    -0.0126 C.ar    
   7 C7             1.1710     2.0888     0.0021 C.ar    
   8 C8             1.2384    -2.1858    -0.0210 C.3     
   9 C9             0.4954    -2.7217    -1.2260 C.2     
  10 O10            2.6067    -2.6714    -0.0100 O.3     
  11 C11            3.3978    -2.2930    -1.0317 C.2     
  12 N12            4.6788    -2.7088    -1.0818 N.am    
  13 O13            2.9568    -1.5767    -1.9085 O.2     
  14 C14            5.5600    -2.3073    -2.1888 C.3     
  15 C15            6.8538    -1.7362    -1.5986 C.3     
  16 N16            7.4341    -2.7105    -0.6648 N.3     
  17 C17            6.5393    -2.9551     0.4743 C.3     
  18 C18            5.2344    -3.5712    -0.0278 C.3     
  19 N19            8.7474    -2.2806    -0.2128 N.3     
  20 C20            9.3280    -3.2553     0.7214 C.3     
  21 C21           10.7386    -2.8071     1.1107 C.3     
  22 N22           10.6748    -1.4714     1.7201 N.3     
  23 C23           10.0942    -0.4967     0.7859 C.3     
  24 C24            8.6836    -0.9449     0.3966 C.3     
  25 H25           10.1584    -1.4936     2.5866 H       
  26 O26            0.7745    -2.5251    -2.3899 O.2     
  27 N27           -0.5308    -3.4561    -0.7651 N.am    
  28 C28            0.4695    -2.7339     1.1599 C.ar    
  29 C29           -0.5756    -3.4845     0.6309 C.ar    
  30 C30            0.6376    -2.6093     2.5214 C.ar    
  31 C31           -0.2397    -3.2360     3.3892 C.ar    
  32 C32           -1.2963    -3.9947     2.8754 C.ar    
  33 C33           -1.4606    -4.1171     1.4959 C.ar    
  34 C34           -0.9792    -5.8526    -2.0419 C.ar    
  35 C35            0.2004    -6.0093    -2.7554 C.ar    
  36 C36           -1.6509    -6.9614    -1.5630 C.ar    
  37 C37           -1.1498    -8.2281    -1.7930 C.ar    
  38 C38            0.0298    -8.3901    -2.5062 C.ar    
  39 C39            0.7051    -7.2796    -2.9879 C.ar    
  40 O40            0.5219    -9.6365    -2.7325 O.3     
  41 O41            0.8603    -4.9187    -3.2264 O.3     
  42 C42            2.0683    -5.1547    -3.9525 C.3     
  43 C43           -0.2264   -10.7347    -2.2073 C.3     
  44 S44           -1.6174    -4.2383    -1.7397 S.o2    
  45 O45           -2.7973    -4.4114    -0.9671 O.2     
  46 O46           -1.5983    -3.5592    -2.9878 O.2     
  47 C47           -2.2089    -4.6466     3.7658 C.1     
  48 N48           -2.9329    -5.1638     4.4721 N.1     
  49 O49           -1.1648    -0.7006     0.0099 O.3     
  50 C50           -2.3744     0.0601     0.0260 C.3     
  51 C51           -3.5740    -0.8895     0.0328 C.3     
  52 F52           -3.5417    -1.6899    -1.1142 F       
  53 F53           -3.5190    -1.7022     1.1702 F       
  54 H54           -0.9590     1.9106     0.0170 H       
  55 H55            3.3426    -0.4937    -0.0325 H       
  56 H56            3.3047     1.9675    -0.0178 H       
  57 H57            1.1569     3.1687     0.0084 H       
  58 H58            5.7912    -3.1754    -2.8062 H       
  59 H59            5.0658    -1.5462    -2.7926 H       
  60 H60            7.5626    -1.5356    -2.4020 H       
  61 H61            6.6335    -0.8101    -1.0677 H       
  62 H62            7.0200    -3.6385     1.1742 H       
  63 H63            6.3234    -2.0120     0.9763 H       
  64 H64            4.5250    -3.6483     0.7962 H       
  65 H65            5.4313    -4.5612    -0.4390 H       
  66 H66            8.7066    -3.3174     1.6148 H       
  67 H67            9.3762    -4.2334     0.2429 H       
  68 H68           11.1602    -3.5133     1.8260 H       
  69 H69           11.3673    -2.7712     0.2210 H       
  70 H70           10.0460     0.4815     1.2644 H       
  71 H71           10.7156    -0.4346    -0.1075 H       
  72 H72            8.2620    -0.2386    -0.3187 H       
  73 H73            8.0549    -0.9807     1.2863 H       
  74 H74            1.4553    -2.0220     2.9122 H       
  75 H75           -2.2766    -4.7032     1.0995 H       
  76 H76           -2.5689    -6.8374    -1.0078 H       
  77 H77           -1.6762    -9.0930    -1.4172 H       
  78 H78            1.6230    -7.4037    -3.5435 H       
  79 H79            2.4928    -4.2026    -4.2708 H       
  80 H80            2.7812    -5.6746    -3.3126 H       
  81 H81            1.8522    -5.7670    -4.8280 H       
  82 H82           -0.2982   -10.6404    -1.1238 H       
  83 H83           -1.2272   -10.7321    -2.6393 H       
  84 H84            0.2752   -11.6693    -2.4583 H       
  85 H85           -2.3995     0.6837     0.9196 H       
  86 H86           -2.4172     0.6932    -0.8603 H       
  87 H87           -4.4966    -0.3093     0.0451 H       
@<TRIPOS>BOND
   1    1   31 1
   2    2    3 ar
   3    2    7 ar
   4    2   54 1
   5    3    4 ar
   6    3   49 1
   7    4    5 ar
   8    4    8 1
   9    5    6 ar
  10    5   55 1
  11    6    7 ar
  12    6   56 1
  13    7   57 1
  14    8    9 1
  15    8   10 1
  16    8   28 1
  17    9   26 2
  18    9   27 am
  19   10   11 1
  20   11   12 am
  21   11   13 2
  22   12   14 1
  23   12   18 1
  24   14   15 1
  25   14   58 1
  26   14   59 1
  27   15   16 1
  28   15   60 1
  29   15   61 1
  30   16   17 1
  31   16   19 1
  32   17   18 1
  33   17   62 1
  34   17   63 1
  35   18   64 1
  36   18   65 1
  37   19   20 1
  38   19   24 1
  39   20   21 1
  40   20   66 1
  41   20   67 1
  42   21   22 1
  43   21   68 1
  44   21   69 1
  45   22   23 1
  46   22   25 1
  47   23   24 1
  48   23   70 1
  49   23   71 1
  50   24   72 1
  51   24   73 1
  52   27   44 am
  53   27   29 1
  54   28   29 ar
  55   28   30 ar
  56   29   33 ar
  57   30   31 ar
  58   30   74 1
  59   31   32 ar
  60   32   33 ar
  61   32   47 1
  62   33   75 1
  63   34   35 ar
  64   34   36 ar
  65   34   44 1
  66   35   41 1
  67   35   39 ar
  68   36   37 ar
  69   36   76 1
  70   37   38 ar
  71   37   77 1
  72   38   39 ar
  73   38   40 1
  74   39   78 1
  75   40   43 1
  76   41   42 1
  77   42   79 1
  78   42   80 1
  79   42   81 1
  80   43   82 1
  81   43   83 1
  82   43   84 1
  83   44   45 2
  84   44   46 2
  85   47   48 3
  86   49   50 1
  87   50   51 1
  88   50   85 1
  89   50   86 1
  90   51   52 1
  91   51   53 1
  92   51   87 1

#	End of record

