#	Name: ASD02038554
#	Creating user name:	WinNT
#	Creation time:	15. 06. 2019 20:16

#	Modifying user name:	WinNT
#	Modification time:	15. 06. 2019 20:16

#	Program:	/corina/corina34_cracker 3.40 0067  02.08.2006

@<TRIPOS>MOLECULE
ASD02038554
  61   65    0    0    0
SMALL
NO_CHARGES


@<TRIPOS>ATOM
   1 C1            -0.1011     2.2207     0.1376 C.3     
   2 N2            -0.2070     0.7576     0.2258 N.3     
   3 C3            -1.6074     0.3390     0.3727 C.3     
   4 C4             0.4148     0.1162    -0.9411 C.3     
   5 C5             1.8907     0.5148    -1.0129 C.3     
   6 N6             1.9966     1.9779    -1.1011 N.3     
   7 C7             3.3305     2.3766    -1.2410 C.ar    
   8 C8             3.6455     3.7254    -1.3415 C.ar    
   9 C9             4.9622     4.1181    -1.4797 C.ar    
  10 C10            5.9701     3.1656    -1.5184 C.ar    
  11 C11            5.6562     1.8180    -1.4180 C.ar    
  12 C12            4.3405     1.4241    -1.2737 C.ar    
  13 C13            1.3748     2.6193     0.0658 C.3     
  14 C14           -2.0684     0.5956     1.8088 C.3     
  15 C15           -3.5594     0.2748     1.9308 C.3     
  16 O16           -4.0164     0.6241     3.2389 O.3     
  17 O17           -1.3273    -0.2369     2.7030 O.3     
  18 C18           -5.3290     0.4009     3.5144 C.ar    
  19 C19           -5.8360     0.7175     4.7643 C.ar    
  20 C20           -6.1587    -0.1385     2.5403 C.ar    
  21 C21           -7.4926    -0.3672     2.8150 C.ar    
  22 C22           -8.0033    -0.0574     4.0657 C.ar    
  23 C23           -7.1741     0.4897     5.0445 C.ar    
  24 N24           -9.2734    -0.1681     4.6359 N.am    
  25 C25           -9.1903     0.2907     5.9005 C.2     
  26 O26           -7.9327     0.6875     6.1505 O.3     
  27 O27          -10.1129     0.3415     6.6910 O.2     
  28 O28            7.2663     3.5530    -1.6553 O.3     
  29 C29            8.2278     2.5940    -1.6028 C.ar    
  30 C30            8.4546     1.7768    -2.7009 C.ar    
  31 C31            9.4327     0.8029    -2.6456 C.ar    
  32 C32           10.1861     0.6421    -1.4961 C.ar    
  33 C33            9.9611     1.4558    -0.3997 C.ar    
  34 C34            8.9879     2.4347    -0.4530 C.ar    
  35 Cl35          11.4147    -0.5825    -1.4291 Cl      
  36 H36           -0.6159     2.5692    -0.7577 H       
  37 H37           -0.5572     2.6720     1.0187 H       
  38 H38           -2.2310     0.9085    -0.3164 H       
  39 H39           -1.6944    -0.7240     0.1476 H       
  40 H40            0.3348    -0.9667    -0.8465 H       
  41 H41           -0.0941     0.4409    -1.8487 H       
  42 H42            2.4055     0.1662    -0.1176 H       
  43 H43            2.3469     0.0635    -1.8940 H       
  44 H44            2.8609     4.4669    -1.3121 H       
  45 H45            5.2074     5.1670    -1.5579 H       
  46 H46            6.4413     1.0771    -1.4486 H       
  47 H47            4.0963     0.3750    -1.1951 H       
  48 H48            1.4549     3.7022    -0.0288 H       
  49 H49            1.8838     2.2946     0.9734 H       
  50 H50           -1.9000     1.6421     2.0629 H       
  51 H51           -4.1159     0.8453     1.1872 H       
  52 H52           -3.7167    -0.7908     1.7635 H       
  53 H53           -1.4301    -1.1837     2.5352 H       
  54 H54           -5.1897     1.1407     5.5189 H       
  55 H55           -5.7601    -0.3794     1.5659 H       
  56 H56           -8.1369    -0.7865     2.0564 H       
  57 H57          -10.0695    -0.5122     4.2015 H       
  58 H58            7.8666     1.9017    -3.5981 H       
  59 H59            9.6093     0.1664    -3.5000 H       
  60 H60           10.5500     1.3285     0.4966 H       
  61 H61            8.8129     3.0698     0.4028 H       
@<TRIPOS>BOND
   1    1    2 1
   2    1   13 1
   3    1   36 1
   4    1   37 1
   5    2    3 1
   6    2    4 1
   7    3   14 1
   8    3   38 1
   9    3   39 1
  10    4    5 1
  11    4   40 1
  12    4   41 1
  13    5    6 1
  14    5   42 1
  15    5   43 1
  16    6    7 1
  17    6   13 1
  18    7    8 ar
  19    7   12 ar
  20    8    9 ar
  21    8   44 1
  22    9   10 ar
  23    9   45 1
  24   10   11 ar
  25   10   28 1
  26   11   12 ar
  27   11   46 1
  28   12   47 1
  29   13   48 1
  30   13   49 1
  31   14   15 1
  32   14   17 1
  33   14   50 1
  34   15   16 1
  35   15   51 1
  36   15   52 1
  37   16   18 1
  38   17   53 1
  39   18   19 ar
  40   18   20 ar
  41   19   23 ar
  42   19   54 1
  43   20   21 ar
  44   20   55 1
  45   21   22 ar
  46   21   56 1
  47   22   23 ar
  48   22   24 1
  49   23   26 1
  50   24   25 am
  51   24   57 1
  52   25   26 1
  53   25   27 2
  54   28   29 1
  55   29   30 ar
  56   29   34 ar
  57   30   31 ar
  58   30   58 1
  59   31   32 ar
  60   31   59 1
  61   32   33 ar
  62   32   35 1
  63   33   34 ar
  64   33   60 1
  65   34   61 1

#	End of record

