#	Name: ASD01150889
#	Creating user name:	WinNT
#	Creation time:	15. 06. 2019 19:05

#	Modifying user name:	WinNT
#	Modification time:	15. 06. 2019 19:05

#	Program:	/corina/corina34_cracker 3.40 0067  02.08.2006

@<TRIPOS>MOLECULE
ASD01150889
  62   64    0    0    0
SMALL
NO_CHARGES


@<TRIPOS>ATOM
   1 C1            -0.0179     1.4713     0.0101 C.ar    
   2 C2             0.0021    -0.0041     0.0020 C.2     
   3 N3            -1.1558    -0.6938     0.0094 N.am    
   4 O4             1.0631    -0.5976    -0.0113 O.2     
   5 C5            -1.1370    -2.0836     0.0017 C.2     
   6 N6            -0.0478    -2.8559    -0.0124 N.2     
   7 C7            -0.3959    -4.1265    -0.0160 C.2     
   8 N8            -1.7505    -4.2220    -0.0042 N.pl3   
   9 C9            -2.2479    -2.9178     0.0134 C.2     
  10 C10           -3.6019    -2.5267     0.0308 C.2     
  11 O11           -4.5752    -3.4630     0.0315 O.3     
  12 O12           -3.8941    -1.3445     0.0452 O.2     
  13 C13           -5.9253    -2.9952     0.0495 C.3     
  14 C14           -6.8795    -4.1912     0.0475 C.3     
  15 S15            0.7214    -5.4888    -0.0341 S.3     
  16 C16            2.2989    -4.6014    -0.0434 C.3     
  17 C17           -2.5386    -5.4570    -0.0044 C.3     
  18 C18           -2.7963    -5.8886     1.4163 C.ar    
  19 C19           -3.9236    -5.4427     2.0804 C.ar    
  20 C20           -4.1600    -5.8386     3.3836 C.ar    
  21 C21           -3.2693    -6.6808     4.0225 C.ar    
  22 C22           -2.1424    -7.1275     3.3580 C.ar    
  23 C23           -1.9083    -6.7351     2.0533 C.ar    
  24 C24            1.1816     2.1884     0.0025 C.ar    
  25 C25            1.1586     3.5651     0.0097 C.ar    
  26 C26           -0.0555     4.2418     0.0249 C.ar    
  27 C27           -1.2508     3.5323     0.0325 C.ar    
  28 C28           -1.2366     2.1555     0.0196 C.ar    
  29 O29           -0.0739     5.5987     0.0328 O.3     
  30 C30           -1.3558     6.2301     0.0483 C.3     
  31 C31           -1.1759     7.7494     0.0553 C.3     
  32 C32           -2.5484     8.4254     0.0720 C.3     
  33 C33           -2.3685     9.9448     0.0789 C.3     
  34 H34           -2.0023    -0.2203     0.0200 H       
  35 H35           -6.0914    -2.3994     0.9470 H       
  36 H36           -6.1093    -2.3821    -0.8327 H       
  37 H37           -6.7134    -4.7870    -0.8500 H       
  38 H38           -6.6956    -4.8042     0.9298 H       
  39 H39           -7.9094    -3.8344     0.0613 H       
  40 H40            2.3718    -3.9806     0.8496 H       
  41 H41            3.1194    -5.3190    -0.0550 H       
  42 H42            2.3556    -3.9704    -0.9303 H       
  43 H43           -3.4887    -5.2816    -0.5089 H       
  44 H44           -1.9883    -6.2390    -0.5276 H       
  45 H45           -4.6195    -4.7846     1.5813 H       
  46 H46           -5.0404    -5.4896     3.9027 H       
  47 H47           -3.4536    -6.9896     5.0408 H       
  48 H48           -1.4464    -7.7853     3.8572 H       
  49 H49           -1.0279    -7.0841     1.5342 H       
  50 H50            2.1254     1.6634    -0.0086 H       
  51 H51            2.0852     4.1200     0.0038 H       
  52 H52           -2.1921     4.0618     0.0443 H       
  53 H53           -2.1657     1.6050     0.0255 H       
  54 H54           -1.9171     5.9347    -0.8381 H       
  55 H55           -1.9004     5.9246     0.9417 H       
  56 H56           -0.6146     8.0448     0.9418 H       
  57 H57           -0.6313     8.0549    -0.8381 H       
  58 H58           -3.1097     8.1300    -0.8145 H       
  59 H59           -3.0930     8.1199     0.9654 H       
  60 H60           -1.8072    10.2401     0.9654 H       
  61 H61           -1.8239    10.2503    -0.8144 H       
  62 H62           -3.3463    10.4264     0.0908 H       
@<TRIPOS>BOND
   1    1    2 1
   2    1   24 ar
   3    1   28 ar
   4    2    3 am
   5    2    4 2
   6    3    5 1
   7    3   34 1
   8    5    6 1
   9    5    9 2
  10    6    7 2
  11    7    8 1
  12    7   15 1
  13    8    9 1
  14    8   17 1
  15    9   10 1
  16   10   11 1
  17   10   12 2
  18   11   13 1
  19   13   14 1
  20   13   35 1
  21   13   36 1
  22   14   37 1
  23   14   38 1
  24   14   39 1
  25   15   16 1
  26   16   40 1
  27   16   41 1
  28   16   42 1
  29   17   18 1
  30   17   43 1
  31   17   44 1
  32   18   19 ar
  33   18   23 ar
  34   19   20 ar
  35   19   45 1
  36   20   21 ar
  37   20   46 1
  38   21   22 ar
  39   21   47 1
  40   22   23 ar
  41   22   48 1
  42   23   49 1
  43   24   25 ar
  44   24   50 1
  45   25   26 ar
  46   25   51 1
  47   26   27 ar
  48   26   29 1
  49   27   28 ar
  50   27   52 1
  51   28   53 1
  52   29   30 1
  53   30   31 1
  54   30   54 1
  55   30   55 1
  56   31   32 1
  57   31   56 1
  58   31   57 1
  59   32   33 1
  60   32   58 1
  61   32   59 1
  62   33   60 1
  63   33   61 1
  64   33   62 1

#	End of record

