#	Name: ASD08178132
#	Creating user name:	WinNT
#	Creation time:	15. 06. 2019 21:18

#	Modifying user name:	WinNT
#	Modification time:	15. 06. 2019 21:18

#	Program:	/corina/corina34_cracker 3.40 0067  02.08.2006

@<TRIPOS>MOLECULE
ASD08178132
  78   83    0    0    0
SMALL
NO_CHARGES


@<TRIPOS>ATOM
   1 C1            -0.0184     1.5028     0.0103 C.2     
   2 C2             0.0021    -0.0041     0.0020 C.3     
   3 C3             0.0221    -0.5218     1.4416 C.3     
   4 C4             0.0429    -2.0516     1.4332 C.3     
   5 C5             0.0630    -2.5693     2.8728 C.3     
   6 C6             0.0834    -4.0761     2.8645 C.2     
   7 N7             1.1396    -4.8258     2.8513 N.2     
   8 N8             0.9467    -6.0734     2.8463 N.2     
   9 C9            -0.2824    -6.4936     2.8547 C.2     
  10 S10           -1.3267    -5.1359     2.8788 S.3     
  11 N11           -0.6838    -7.8252     2.8506 N.am    
  12 N12            1.0171     2.2809     0.0046 N.2     
  13 C13            0.2391    -8.8073     2.8374 C.2     
  14 O14            1.4197    -8.5298     2.8290 O.2     
  15 C15           -0.1960   -10.2501     2.8329 C.3     
  16 C16            1.0193   -11.1412     2.8177 C.ar    
  17 N17            0.7904     3.5228     0.0134 N.2     
  18 C18           -0.4495     3.9094     0.0274 C.2     
  19 S19           -1.4568     2.5237     0.0218 S.3     
  20 C20            2.6812   -12.3604     1.5909 C.ar    
  21 C21            1.5848   -11.5551     4.0067 C.ar    
  22 C22            2.7084   -12.3790     3.9912 C.ar    
  23 C23            3.2549   -12.7804     2.7739 C.ar    
  24 C24            1.5625   -11.5472     1.6122 C.ar    
  25 C25            3.3210   -12.8269     5.2664 C.ar    
  26 C26            4.4444   -13.6506     5.2505 C.ar    
  27 C27            5.0111   -14.0643     6.4417 C.ar    
  28 C28            4.4631   -13.6607     7.6483 C.ar    
  29 C29            3.3477   -12.8434     7.6674 C.ar    
  30 C30            2.7780   -12.4203     6.4835 C.ar    
  31 F31            6.1003   -14.8635     6.4290 F       
  32 N32           -0.8870     5.2295     0.0390 N.am    
  33 C33            0.0089     6.2364     0.0358 C.2     
  34 O34            1.1967     5.9912     0.0228 O.2     
  35 C35           -0.4651     7.6668     0.0485 C.3     
  36 C36            0.7256     8.5906     0.0419 C.ar    
  37 C37            1.2592     9.0205    -1.1596 C.ar    
  38 C38            2.3519     9.8685    -1.1730 C.ar    
  39 C39            2.9158    10.2903     0.0140 C.ar    
  40 C40            2.3824     9.8604     1.2272 C.ar    
  41 C41            1.2781     9.0107     1.2349 C.ar    
  42 C42            2.9845    10.3105     2.5067 C.ar    
  43 C43            4.0851    11.1644     2.4988 C.ar    
  44 C44            2.4473     9.8850     3.7199 C.ar    
  45 C45            3.0103    10.3059     4.9078 C.ar    
  46 C46            4.1060    11.1494     4.8965 C.ar    
  47 C47            4.6418    11.5805     3.6938 C.ar    
  48 F48            5.7127    12.4041     3.6888 F       
  49 H49           -0.8875    -0.3767    -0.5057 H       
  50 H50            0.8922    -0.3525    -0.5218 H       
  51 H51            0.9118    -0.1491     1.9494 H       
  52 H52           -0.8680    -0.1733     1.9655 H       
  53 H53           -0.8467    -2.4242     0.9255 H       
  54 H54            0.9330    -2.4000     0.9094 H       
  55 H55            0.9526    -2.1967     3.3806 H       
  56 H56           -0.8271    -2.2209     3.3967 H       
  57 H57           -1.6281    -8.0470     2.8573 H       
  58 H58           -0.7854   -10.4546     3.7267 H       
  59 H59           -0.8003   -10.4446     1.9469 H       
  60 H60            3.1016   -12.6743     0.6469 H       
  61 H61            1.1574   -11.2408     4.9474 H       
  62 H62            4.1255   -13.4192     2.7562 H       
  63 H63            1.1166   -11.2212     0.6842 H       
  64 H64            4.8713   -13.9655     4.3098 H       
  65 H65            4.9082   -13.9856     8.5771 H       
  66 H66            2.9241   -12.5319     8.6108 H       
  67 H67            1.9069   -11.7821     6.5005 H       
  68 H68           -1.8369     5.4256     0.0495 H       
  69 H69           -1.0758     7.8550    -0.8345 H       
  70 H70           -1.0583     7.8451     0.9454 H       
  71 H71            0.8212     8.6926    -2.0908 H       
  72 H72            2.7648    10.2008    -2.1140 H       
  73 H73            3.7692    10.9521     0.0024 H       
  74 H74            0.8606     8.6745     2.1725 H       
  75 H75            4.5027    11.5004     1.5612 H       
  76 H76            1.5911     9.2268     3.7308 H       
  77 H77            2.5939     9.9761     5.8481 H       
  78 H78            4.5430    11.4765     5.8285 H       
@<TRIPOS>BOND
   1    1    2 1
   2    1   12 2
   3    1   19 1
   4    2    3 1
   5    2   49 1
   6    2   50 1
   7    3    4 1
   8    3   51 1
   9    3   52 1
  10    4    5 1
  11    4   53 1
  12    4   54 1
  13    5    6 1
  14    5   55 1
  15    5   56 1
  16    6    7 2
  17    6   10 1
  18    7    8 1
  19    8    9 2
  20    9   10 1
  21    9   11 1
  22   11   13 am
  23   11   57 1
  24   12   17 1
  25   13   14 2
  26   13   15 1
  27   15   16 1
  28   15   58 1
  29   15   59 1
  30   16   21 ar
  31   16   24 ar
  32   17   18 2
  33   18   19 1
  34   18   32 1
  35   20   24 ar
  36   20   23 ar
  37   20   60 1
  38   21   22 ar
  39   21   61 1
  40   22   23 ar
  41   22   25 1
  42   23   62 1
  43   24   63 1
  44   25   26 ar
  45   25   30 ar
  46   26   27 ar
  47   26   64 1
  48   27   28 ar
  49   27   31 1
  50   28   29 ar
  51   28   65 1
  52   29   30 ar
  53   29   66 1
  54   30   67 1
  55   32   33 am
  56   32   68 1
  57   33   34 2
  58   33   35 1
  59   35   36 1
  60   35   69 1
  61   35   70 1
  62   36   37 ar
  63   36   41 ar
  64   37   38 ar
  65   37   71 1
  66   38   39 ar
  67   38   72 1
  68   39   40 ar
  69   39   73 1
  70   40   41 ar
  71   40   42 1
  72   41   74 1
  73   42   43 ar
  74   42   44 ar
  75   43   47 ar
  76   43   75 1
  77   44   45 ar
  78   44   76 1
  79   45   46 ar
  80   45   77 1
  81   46   47 ar
  82   46   78 1
  83   47   48 1

#	End of record

