#	Name: ASD03430276
#	Creating user name:	WinNT
#	Creation time:	15. 06. 2019 20:40

#	Modifying user name:	WinNT
#	Modification time:	15. 06. 2019 20:40

#	Program:	/corina/corina34_cracker 3.40 0067  02.08.2006

@<TRIPOS>MOLECULE
ASD03430276
  64   68    0    0    0
SMALL
NO_CHARGES


@<TRIPOS>ATOM
   1 C1            -0.0167     1.3778     0.0096 C.ar    
   2 C2             0.0021    -0.0041     0.0020 C.ar    
   3 C3             1.2027    -0.6814    -0.0134 C.ar    
   4 C4             2.4093     0.0137    -0.0102 C.ar    
   5 C5             2.3858     1.4047    -0.0075 C.ar    
   6 C6             1.1790     2.0825     0.0020 C.ar    
   7 O7             3.4712    -0.8404     0.0027 O.3     
   8 C8             1.5516    -2.1451    -0.0498 C.3     
   9 C9             3.0381    -2.1437    -0.4323 C.3     
  10 C10            0.4247    -3.8626     0.9995 C.ar    
  11 C11            1.3128    -2.8232     1.2664 C.ar    
  12 C12            0.7205    -2.9032    -1.0448 C.2     
  13 N13            0.0984    -3.8823    -0.3586 N.am    
  14 O14            0.6271    -2.6782    -2.2330 O.2     
  15 C15            1.7760    -2.6089     2.5449 C.ar    
  16 C16            1.3606    -3.4290     3.5794 C.ar    
  17 C17            0.4794    -4.4638     3.3258 C.ar    
  18 C18            0.0123    -4.6827     2.0463 C.ar    
  19 C19            2.4313     4.1034    -0.0044 C.3     
  20 O20            1.1649     3.4414     0.0038 O.3     
  21 C21           -0.8136    -4.8545    -0.9664 C.3     
  22 C22           -1.3301     2.1165     0.0198 C.3     
  23 C23           -2.2425    -4.3092    -0.9237 C.3     
  24 C24           -3.2209    -5.2542    -1.6701 C.3     
  25 C25           -4.5709    -4.9703    -0.9784 C.3     
  26 N26           -4.2726    -4.4054     0.3458 N.am    
  27 C27           -2.8095    -4.3497     0.5174 C.3     
  28 C28           -5.1856    -4.0040     1.2524 C.2     
  29 O29           -4.8230    -3.5496     2.3202 O.2     
  30 N30           -6.5006    -4.1064     0.9752 N.am    
  31 C31           -7.4930    -3.6700     1.9606 C.3     
  32 C32           -7.7291    -2.1654     1.8148 C.3     
  33 C33           -8.8072    -4.4176     1.7262 C.3     
  34 H34           -0.9268    -0.5551     0.0085 H       
  35 H35            3.3132     1.9581    -0.0125 H       
  36 H36            3.1605    -2.2525    -1.5100 H       
  37 H37            3.5756    -2.9280     0.1005 H       
  38 H38            2.4646    -1.8003     2.7408 H       
  39 H39            1.7242    -3.2612     4.5824 H       
  40 H40            0.1555    -5.1039     4.1331 H       
  41 H41           -0.6757    -5.4931     1.8560 H       
  42 H42            2.9849     3.8175    -0.8987 H       
  43 H43            2.2772     5.1824    -0.0019 H       
  44 H44            2.9976     3.8152     0.8812 H       
  45 H45           -0.5218    -5.0282    -2.0021 H       
  46 H46           -0.7660    -5.7925    -0.4133 H       
  47 H47           -1.6420     2.2890     1.0499 H       
  48 H48           -1.2130     3.0731    -0.4894 H       
  49 H49           -2.0855     1.5217    -0.4937 H       
  50 H50           -2.2857    -3.2999    -1.3329 H       
  51 H51           -3.2694    -5.0008    -2.7291 H       
  52 H52           -2.9297    -6.2958    -1.5346 H       
  53 H53           -5.1452    -4.2541    -1.5661 H       
  54 H54           -5.1330    -5.8976    -0.8678 H       
  55 H55           -2.4547    -5.2382     1.0397 H       
  56 H56           -2.5254    -3.4495     1.0623 H       
  57 H57           -6.7899    -4.4689     0.1233 H       
  58 H58           -7.1269    -3.8848     2.9645 H       
  59 H59           -6.7929    -1.6329     1.9818 H       
  60 H60           -8.0952    -1.9507     0.8108 H       
  61 H61           -8.4675    -1.8408     2.5479 H       
  62 H62           -8.6390    -5.4895     1.8301 H       
  63 H63           -9.5456    -4.0930     2.4594 H       
  64 H64           -9.1733    -4.2028     0.7222 H       
@<TRIPOS>BOND
   1    1    2 ar
   2    1    6 ar
   3    1   22 1
   4    2    3 ar
   5    2   34 1
   6    3    4 ar
   7    3    8 1
   8    4    5 ar
   9    4    7 1
  10    5    6 ar
  11    5   35 1
  12    6   20 1
  13    7    9 1
  14    8    9 1
  15    8   11 1
  16    8   12 1
  17    9   36 1
  18    9   37 1
  19   10   11 ar
  20   10   13 1
  21   10   18 ar
  22   11   15 ar
  23   12   13 am
  24   12   14 2
  25   13   21 1
  26   15   16 ar
  27   15   38 1
  28   16   17 ar
  29   16   39 1
  30   17   18 ar
  31   17   40 1
  32   18   41 1
  33   19   20 1
  34   19   42 1
  35   19   43 1
  36   19   44 1
  37   21   23 1
  38   21   45 1
  39   21   46 1
  40   22   47 1
  41   22   48 1
  42   22   49 1
  43   23   24 1
  44   23   27 1
  45   23   50 1
  46   24   25 1
  47   24   51 1
  48   24   52 1
  49   25   26 1
  50   25   53 1
  51   25   54 1
  52   26   27 1
  53   26   28 am
  54   27   55 1
  55   27   56 1
  56   28   29 2
  57   28   30 am
  58   30   31 1
  59   30   57 1
  60   31   32 1
  61   31   33 1
  62   31   58 1
  63   32   59 1
  64   32   60 1
  65   32   61 1
  66   33   62 1
  67   33   63 1
  68   33   64 1

#	End of record

