#	Name: ASD08830062
#	Creating user name:	WinNT
#	Creation time:	15. 06. 2019 21:19

#	Modifying user name:	WinNT
#	Modification time:	15. 06. 2019 21:19

#	Program:	/corina/corina34_cracker 3.40 0067  02.08.2006

@<TRIPOS>MOLECULE
ASD08830062
  40   42    0    0    0
SMALL
NO_CHARGES


@<TRIPOS>ATOM
   1 C1            -0.0172     1.4150     0.0098 C.ar    
   2 C2             0.0021    -0.0041     0.0020 C.ar    
   3 C3             1.1964     2.1301     0.0021 C.ar    
   4 C4             2.3773     1.4642    -0.0133 C.ar    
   5 C5             2.4111     0.0551    -0.0217 C.ar    
   6 C6             1.2311    -0.6773    -0.0139 C.ar    
   7 C7             3.7037    -0.6438    -0.0388 C.2     
   8 C8             4.9872     0.1459    -0.0473 C.3     
   9 C9             6.1774    -0.8154    -0.0649 C.3     
  10 N10            7.4285    -0.0456    -0.0732 N.3     
  11 O11            3.7376    -1.8561    -0.0461 O.2     
  12 C12            8.5878    -0.9220     0.1484 C.3     
  13 C13           -1.2487     2.0856     0.0310 C.ar    
  14 C14           -1.2126    -0.7147     0.0108 C.ar    
  15 C15           -2.3922    -0.0394     0.0266 C.ar    
  16 C16           -2.4189     1.3589     0.0440 C.ar    
  17 C17            9.8712    -0.0906     0.0727 C.3     
  18 O18            9.8034     0.9699     1.0298 O.3     
  19 C19            8.6864     1.8433     0.8432 C.3     
  20 C20            7.3911     1.0315     0.9267 C.3     
  21 O21           -3.6119     2.0076     0.0600 O.3     
  22 H22            1.1862     3.2100     0.0080 H       
  23 H23            3.3032     2.0201    -0.0195 H       
  24 H24            1.2604    -1.7569    -0.0202 H       
  25 H25            5.0184     0.7790    -0.9340 H       
  26 H26            5.0365     0.7689     0.8458 H       
  27 H27            6.1462    -1.4485     0.8218 H       
  28 H28            6.1281    -1.4383    -0.9580 H       
  29 H29            8.5115    -1.3848     1.1323 H       
  30 H30            8.6103    -1.6966    -0.6182 H       
  31 H31           -1.2795     3.1651     0.0375 H       
  32 H32           -1.2075    -1.7947     0.0046 H       
  33 H33           -3.3213    -0.5901     0.0333 H       
  34 H34           10.7295    -0.7253     0.2928 H       
  35 H35            9.9748     0.3286    -0.9282 H       
  36 H36            8.6879     2.6073     1.6207 H       
  37 H37            8.7556     2.3187    -0.1352 H       
  38 H38            6.5399     1.6828     0.7284 H       
  39 H39            7.2956     0.5999     1.9231 H       
  40 H40           -3.9514     2.1846     0.9479 H       
@<TRIPOS>BOND
   1    1    2 ar
   2    1    3 ar
   3    1   13 ar
   4    2   14 ar
   5    2    6 ar
   6    3    4 ar
   7    3   22 1
   8    4    5 ar
   9    4   23 1
  10    5    6 ar
  11    5    7 1
  12    6   24 1
  13    7    8 1
  14    7   11 2
  15    8    9 1
  16    8   25 1
  17    8   26 1
  18    9   10 1
  19    9   27 1
  20    9   28 1
  21   10   12 1
  22   10   20 1
  23   12   17 1
  24   12   29 1
  25   12   30 1
  26   13   16 ar
  27   13   31 1
  28   14   15 ar
  29   14   32 1
  30   15   16 ar
  31   15   33 1
  32   16   21 1
  33   17   18 1
  34   17   34 1
  35   17   35 1
  36   18   19 1
  37   19   20 1
  38   19   36 1
  39   19   37 1
  40   20   38 1
  41   20   39 1
  42   21   40 1

#	End of record

