#	Name: ASD01916138
#	Creating user name:	WinNT
#	Creation time:	15. 06. 2019 20:06

#	Modifying user name:	WinNT
#	Modification time:	15. 06. 2019 20:06

#	Program:	/corina/corina34_cracker 3.40 0067  02.08.2006

@<TRIPOS>MOLECULE
ASD01916138
  47   50    0    0    0
SMALL
NO_CHARGES


@<TRIPOS>ATOM
   1 C1             2.8323     1.1919    -0.6336 C.ar    
   2 C2             2.4294    -0.1281    -0.5733 C.ar    
   3 C3             3.3699    -1.1440    -0.6626 C.ar    
   4 C4             4.7132    -0.8313    -0.8124 C.ar    
   5 C5             5.1110     0.4903    -0.8722 C.ar    
   6 C6             4.1717     1.5009    -0.7829 C.ar    
   7 O7             2.9761    -2.4434    -0.6031 O.3     
   8 C8             3.9989    -3.4364    -0.7017 C.3     
   9 C9             3.3782    -4.8070    -0.6165 C.2     
  10 C10            2.0131    -5.0819    -0.4644 C.2     
  11 N11            4.0219    -5.9465    -0.6777 N.2     
  12 N12            3.0890    -6.9808    -0.5651 N.pl3   
  13 C13            1.8651    -6.4197    -0.4304 C.2     
  14 C14            3.3524    -8.4222    -0.5942 C.3     
  15 C15            2.1577    -9.1664     0.0120 C.3     
  16 N16            0.9119    -8.6187    -0.5460 N.am    
  17 C17            0.5872    -7.2081    -0.2667 C.3     
  18 C18            0.0915    -9.3825    -1.2944 C.2     
  19 C19           -1.1954    -8.8362    -1.7715 C.ar    
  20 O20            0.4107   -10.5211    -1.5768 O.2     
  21 C21           -1.9994    -8.0846    -0.9119 C.ar    
  22 C22           -3.1990    -7.5768    -1.3624 C.ar    
  23 C23           -3.6079    -7.8111    -2.6664 C.ar    
  24 C24           -2.8137    -8.5570    -3.5239 C.ar    
  25 C25           -1.6095    -9.0646    -3.0855 C.ar    
  26 F26           -4.7846    -7.3111    -3.1029 F       
  27 C27            0.0702    -7.0653     1.1662 C.3     
  28 H28            2.1000     1.9830    -0.5686 H       
  29 H29            1.3831    -0.3690    -0.4563 H       
  30 H30            5.4473    -1.6204    -0.8818 H       
  31 H31            6.1566     0.7342    -0.9884 H       
  32 H32            4.4847     2.5335    -0.8298 H       
  33 H33            4.5171    -3.3309    -1.6548 H       
  34 H34            4.7098    -3.3082     0.1146 H       
  35 H35            1.2212    -4.3515    -0.3880 H       
  36 H36            3.4973    -8.7450    -1.6252 H       
  37 H37            4.2493    -8.6401    -0.0144 H       
  38 H38            2.2291   -10.2270    -0.2290 H       
  39 H39            2.1595    -9.0373     1.0943 H       
  40 H40           -0.1646    -6.8529    -0.9715 H       
  41 H41           -1.6820    -7.9019     0.1041 H       
  42 H42           -3.8217    -6.9958    -0.6984 H       
  43 H43           -3.1371    -8.7368    -4.5386 H       
  44 H44           -0.9915    -9.6452    -3.7543 H       
  45 H45            0.8925    -7.2152     1.8658 H       
  46 H46           -0.3470    -6.0678     1.3042 H       
  47 H47           -0.7032    -7.8112     1.3494 H       
@<TRIPOS>BOND
   1    1    2 ar
   2    1    6 ar
   3    1   28 1
   4    2    3 ar
   5    2   29 1
   6    3    4 ar
   7    3    7 1
   8    4    5 ar
   9    4   30 1
  10    5    6 ar
  11    5   31 1
  12    6   32 1
  13    7    8 1
  14    8    9 1
  15    8   33 1
  16    8   34 1
  17    9   10 1
  18    9   11 2
  19   10   13 2
  20   10   35 1
  21   11   12 1
  22   12   13 1
  23   12   14 1
  24   13   17 1
  25   14   15 1
  26   14   36 1
  27   14   37 1
  28   15   16 1
  29   15   38 1
  30   15   39 1
  31   16   17 1
  32   16   18 am
  33   17   27 1
  34   17   40 1
  35   18   19 1
  36   18   20 2
  37   19   21 ar
  38   19   25 ar
  39   21   22 ar
  40   21   41 1
  41   22   23 ar
  42   22   42 1
  43   23   24 ar
  44   23   26 1
  45   24   25 ar
  46   24   43 1
  47   25   44 1
  48   27   45 1
  49   27   46 1
  50   27   47 1

#	End of record

