#	Name: ASD01903349
#	Creating user name:	WinNT
#	Creation time:	15. 06. 2019 19:54

#	Modifying user name:	WinNT
#	Modification time:	15. 06. 2019 19:54

#	Program:	/corina/corina34_cracker 3.40 0067  02.08.2006

@<TRIPOS>MOLECULE
ASD01903349
  41   44    0    0    0
SMALL
NO_CHARGES


@<TRIPOS>ATOM
   1 C1            -0.0147     1.3761    -0.0196 C.ar    
   2 C2             0.0037    -0.0028    -0.0269 C.ar    
   3 C3             1.2107    -0.6928    -0.0353 C.ar    
   4 C4             2.3956     0.0067    -0.0370 C.ar    
   5 C5             2.3744     1.3969    -0.0301 C.ar    
   6 C6             1.1758     2.0790    -0.0212 C.ar    
   7 S7             1.5062    -2.4316    -0.0451 S.o2    
   8 N8             3.1538    -2.6309    -0.0530 N.am    
   9 S9             3.7753    -1.0920    -0.0482 S.o2    
  10 O10            4.4223    -0.9143    -1.3008 O.2     
  11 O11            4.4329    -0.9265     1.2006 O.2     
  12 O12            1.0461    -2.9260     1.2052 O.2     
  13 O13            1.0355    -2.9138    -1.2961 O.2     
  14 C14            3.8607    -3.8283    -0.0615 C.ar    
  15 C15            5.2529    -3.8130    -0.0674 C.ar    
  16 C16            5.9553    -4.9962    -0.0757 C.ar    
  17 C17            5.2696    -6.2146    -0.0778 C.ar    
  18 C18            3.8715    -6.2265    -0.0714 C.ar    
  19 C19            3.1749    -5.0398    -0.0582 C.ar    
  20 C20            6.0193    -7.4846    -0.0873 C.2     
  21 N21            5.3568    -8.6583    -0.0893 N.am    
  22 C22            6.0608    -9.8559    -0.2072 C.ar    
  23 C23            5.3839   -11.0653    -0.1007 C.ar    
  24 C24            6.0937   -12.2473    -0.2200 C.ar    
  25 C25            7.4637   -12.1780    -0.4430 C.ar    
  26 C26            8.0714   -10.9391    -0.5381 C.ar    
  27 N27            7.3661    -9.8300    -0.4249 N.ar    
  28 O28            7.2353    -7.4727    -0.0932 O.2     
  29 F29            8.1938   -13.3081    -0.5650 F       
  30 H30           -0.9562     1.9053    -0.0172 H       
  31 H31           -0.9268    -0.5510    -0.0256 H       
  32 H32            3.3038     1.9469    -0.0314 H       
  33 H33            1.1673     3.1590    -0.0163 H       
  34 H34            5.7820    -2.8715    -0.0657 H       
  35 H35            7.0353    -4.9837    -0.0810 H       
  36 H36            3.3389    -7.1660    -0.0730 H       
  37 H37            2.0950    -5.0483    -0.0529 H       
  38 H38            4.3903    -8.6697    -0.0087 H       
  39 H39            4.3181   -11.0822     0.0732 H       
  40 H40            5.5944   -13.2018    -0.1413 H       
  41 H41            9.1358   -10.8790    -0.7110 H       
@<TRIPOS>BOND
   1    1    2 ar
   2    1    6 ar
   3    1   30 1
   4    2    3 ar
   5    2   31 1
   6    3    4 ar
   7    3    7 1
   8    4    5 ar
   9    4    9 1
  10    5    6 ar
  11    5   32 1
  12    6   33 1
  13    7    8 am
  14    7   12 2
  15    7   13 2
  16    8    9 am
  17    8   14 1
  18    9   10 2
  19    9   11 2
  20   14   15 ar
  21   14   19 ar
  22   15   16 ar
  23   15   34 1
  24   16   17 ar
  25   16   35 1
  26   17   18 ar
  27   17   20 1
  28   18   19 ar
  29   18   36 1
  30   19   37 1
  31   20   21 am
  32   20   28 2
  33   21   22 1
  34   21   38 1
  35   22   23 ar
  36   22   27 ar
  37   23   24 ar
  38   23   39 1
  39   24   25 ar
  40   24   40 1
  41   25   26 ar
  42   25   29 1
  43   26   27 ar
  44   26   41 1

#	End of record

