#	Name: ASD00170136
#	Creating user name:	WinNT
#	Creation time:	15. 06. 2019 18:31

#	Modifying user name:	WinNT
#	Modification time:	15. 06. 2019 18:31

#	Program:	/corina/corina34_cracker 3.40 0067  02.08.2006

@<TRIPOS>MOLECULE
ASD00170136
  34   38    0    0    0
SMALL
NO_CHARGES


@<TRIPOS>ATOM
   1 C1            -0.0182     1.4915     0.0102 C.2     
   2 C2             0.0021    -0.0041     0.0020 C.ar    
   3 C3             1.3190    -0.4523    -0.0130 C.ar    
   4 C4             2.1957     0.7740    -0.0147 C.3     
   5 C5             1.2472     1.9528     0.0006 C.2     
   6 S6             1.2222     3.7156     0.0099 S.3     
   7 C7            -0.5366     3.6920     0.0263 C.2     
   8 N8            -0.9504     2.4702     0.0195 N.2     
   9 C9            -1.0453    -0.9281     0.0075 C.ar    
  10 C10           -0.7702    -2.2774    -0.0020 C.ar    
  11 C11            0.5516    -2.7231    -0.0170 C.ar    
  12 C12            1.5977    -1.7992    -0.0233 C.ar    
  13 N13           -1.3514     4.8123     0.0398 N.pl3   
  14 C14            0.8449    -4.1766    -0.0268 C.ar    
  15 C15           -0.1995    -5.0997    -0.0211 C.ar    
  16 C16            0.0772    -6.4548    -0.0302 C.ar    
  17 C17            1.3997    -6.8950    -0.0451 C.ar    
  18 C18            2.4375    -5.9750    -0.0506 C.ar    
  19 C19            2.1656    -4.6223    -0.0476 C.ar    
  20 O20           -0.7451    -7.5447    -0.0274 O.3     
  21 C21            0.0769    -8.6474    -0.4533 C.3     
  22 O22            1.4041    -8.2603    -0.0514 O.3     
  23 H23            2.8272     0.7869     0.8736 H       
  24 H24            2.8101     0.7965    -0.9148 H       
  25 H25           -2.0692    -0.5850     0.0195 H       
  26 H26           -1.5797    -2.9923     0.0026 H       
  27 H27            2.6222    -2.1406    -0.0349 H       
  28 H28           -0.9573     5.6987     0.0406 H       
  29 H29           -2.3160     4.7104     0.0484 H       
  30 H30           -1.2237    -4.7571    -0.0092 H       
  31 H31            3.4614    -6.3184    -0.0618 H       
  32 H32            2.9762    -3.9087    -0.0519 H       
  33 H33           -0.2233    -9.5659     0.0508 H       
  34 H34            0.0245    -8.7685    -1.5353 H       
@<TRIPOS>BOND
   1    1    2 1
   2    1    5 2
   3    1    8 1
   4    2    3 ar
   5    2    9 ar
   6    3    4 1
   7    3   12 ar
   8    4    5 1
   9    4   23 1
  10    4   24 1
  11    5    6 1
  12    6    7 1
  13    7    8 2
  14    7   13 1
  15    9   10 ar
  16    9   25 1
  17   10   11 ar
  18   10   26 1
  19   11   12 ar
  20   11   14 1
  21   12   27 1
  22   13   28 1
  23   13   29 1
  24   14   15 ar
  25   14   19 ar
  26   15   16 ar
  27   15   30 1
  28   16   17 ar
  29   16   20 1
  30   17   18 ar
  31   17   22 1
  32   18   19 ar
  33   18   31 1
  34   19   32 1
  35   20   21 1
  36   21   22 1
  37   21   33 1
  38   21   34 1

#	End of record

