#	Name: ASD03430680
#	Creating user name:	WinNT
#	Creation time:	15. 06. 2019 20:41

#	Modifying user name:	WinNT
#	Modification time:	15. 06. 2019 20:41

#	Program:	/corina/corina34_cracker 3.40 0067  02.08.2006

@<TRIPOS>MOLECULE
ASD03430680
  56   61    0    0    0
SMALL
NO_CHARGES


@<TRIPOS>ATOM
   1 C1             2.6380     0.3988    -0.0372 C.ar    
   2 C2             2.0739    -0.8640    -0.0668 C.ar    
   3 C3             2.8674    -1.9727    -0.2740 C.ar    
   4 C4             4.2422    -1.8397    -0.4468 C.ar    
   5 C5             4.8051    -0.5674    -0.4203 C.ar    
   6 C6             4.0081     0.5451    -0.2167 C.ar    
   7 O7             4.8395    -3.0543    -0.6112 O.3     
   8 C8             2.5628    -3.4434    -0.3784 C.3     
   9 C9             3.8449    -4.0257    -0.9891 C.3     
  10 C10            0.9779    -4.6113     0.8236 C.ar    
  11 C11            2.2489    -4.0565     0.9540 C.ar    
  12 C12            1.3605    -3.7160    -1.2355 C.2     
  13 N13            0.4864    -4.3951    -0.4660 N.am    
  14 O14            1.2058    -3.3888    -2.3931 O.2     
  15 C15            2.9351    -4.1482     2.1441 C.ar    
  16 C16            2.3630    -4.7949     3.2258 C.ar    
  17 C17            1.1015    -5.3484     3.1080 C.ar    
  18 C18            0.4101    -5.2597     1.9173 C.ar    
  19 C19           -0.8260    -4.8533    -0.9285 C.3     
  20 C20           -1.9063    -4.1771    -0.1242 C.ar    
  21 C21           -3.0505    -4.8727     0.2189 C.ar    
  22 C22           -4.0415    -4.2524     0.9565 C.ar    
  23 C23           -3.8880    -2.9366     1.3515 C.ar    
  24 C24           -2.7433    -2.2413     1.0092 C.ar    
  25 C25           -1.7505    -2.8629     0.2752 C.ar    
  26 C26           -0.9939    -4.5078    -2.3857 C.ar    
  27 C27           -0.9640    -5.5068    -3.3408 C.ar    
  28 C28           -1.1834    -3.1926    -2.7669 C.ar    
  29 C29           -1.3373    -2.8757    -4.1035 C.ar    
  30 C30           -1.3014    -3.8739    -5.0591 C.ar    
  31 C31           -1.1180    -5.1899    -4.6774 C.ar    
  32 O32            4.5667     1.7843    -0.1927 O.3     
  33 C33            5.9807     1.8623    -0.3840 C.3     
  34 F34            1.8595     1.4853     0.1599 F       
  35 H35            1.0094    -0.9819     0.0729 H       
  36 H36            5.8694    -0.4477    -0.5593 H       
  37 H37            3.7613    -4.0922    -2.0739 H       
  38 H38            4.0716    -5.0002    -0.5568 H       
  39 H39            3.9205    -3.7154     2.2335 H       
  40 H40            2.9006    -4.8668     4.1597 H       
  41 H41            0.6553    -5.8530     3.9522 H       
  42 H42           -0.5751    -5.6942     1.8334 H       
  43 H43           -0.8997    -5.9332    -0.8003 H       
  44 H44           -3.1705    -5.9007    -0.0897 H       
  45 H45           -4.9357    -4.7957     1.2240 H       
  46 H46           -4.6625    -2.4518     1.9272 H       
  47 H47           -2.6236    -1.2132     1.3175 H       
  48 H48           -0.8562    -2.3196     0.0078 H       
  49 H49           -0.8201    -6.5348    -3.0426 H       
  50 H50           -1.2115    -2.4127    -2.0203 H       
  51 H51           -1.4861    -1.8483    -4.4013 H       
  52 H52           -1.4220    -3.6264    -6.1034 H       
  53 H53           -1.0898    -5.9697    -5.4240 H       
  54 H54            6.2395     1.4432    -1.3564 H       
  55 H55            6.2960     2.9049    -0.3423 H       
  56 H56            6.4852     1.2985     0.4006 H       
@<TRIPOS>BOND
   1    1    2 ar
   2    1    6 ar
   3    1   34 1
   4    2    3 ar
   5    2   35 1
   6    3    4 ar
   7    3    8 1
   8    4    5 ar
   9    4    7 1
  10    5    6 ar
  11    5   36 1
  12    6   32 1
  13    7    9 1
  14    8    9 1
  15    8   11 1
  16    8   12 1
  17    9   37 1
  18    9   38 1
  19   10   11 ar
  20   10   13 1
  21   10   18 ar
  22   11   15 ar
  23   12   13 am
  24   12   14 2
  25   13   19 1
  26   15   16 ar
  27   15   39 1
  28   16   17 ar
  29   16   40 1
  30   17   18 ar
  31   17   41 1
  32   18   42 1
  33   19   20 1
  34   19   26 1
  35   19   43 1
  36   20   21 ar
  37   20   25 ar
  38   21   22 ar
  39   21   44 1
  40   22   23 ar
  41   22   45 1
  42   23   24 ar
  43   23   46 1
  44   24   25 ar
  45   24   47 1
  46   25   48 1
  47   26   27 ar
  48   26   28 ar
  49   27   31 ar
  50   27   49 1
  51   28   29 ar
  52   28   50 1
  53   29   30 ar
  54   29   51 1
  55   30   31 ar
  56   30   52 1
  57   31   53 1
  58   32   33 1
  59   33   54 1
  60   33   55 1
  61   33   56 1

#	End of record

