#	Name: ASD04590634
#	Creating user name:	WinNT
#	Creation time:	15. 06. 2019 20:51

#	Modifying user name:	WinNT
#	Modification time:	15. 06. 2019 20:51

#	Program:	/corina/corina34_cracker 3.40 0067  02.08.2006

@<TRIPOS>MOLECULE
ASD04590634
  75   80    0    0    0
SMALL
NO_CHARGES


@<TRIPOS>ATOM
   1 N1            -3.2700    -1.1191    -0.7565 N.ar    
   2 C2            -2.1333    -0.4404    -0.6677 C.ar    
   3 N3            -0.9546    -1.0048    -0.8750 N.ar    
   4 C4            -0.8668    -2.2950    -1.1845 C.ar    
   5 C5            -2.0566    -3.0438    -1.2860 C.ar    
   6 C6            -3.2726    -2.4067    -1.0597 C.ar    
   7 N7             0.1931    -3.1269    -1.4473 N.pl3   
   8 C8            -0.2539    -4.4081    -1.7210 C.ar    
   9 C9            -1.6576    -4.4135    -1.6339 C.ar    
  10 C10            0.3942    -5.5939    -2.0413 C.ar    
  11 N11           -0.2938    -6.6964    -2.2577 N.ar    
  12 C12           -1.6126    -6.7352    -2.1838 C.ar    
  13 C13           -2.3398    -5.6060    -1.8723 C.ar    
  14 N14           -2.1823     0.9062    -0.3473 N.pl3   
  15 C15           -3.4136     1.5510    -0.2309 C.ar    
  16 C16            1.5994    -2.7165    -1.4397 C.3     
  17 C17            1.8652    -1.7195    -2.5865 C.3     
  18 C18            1.9257    -1.9773    -0.1302 C.3     
  19 C19            2.3783    -0.5569    -0.5269 C.3     
  20 C20            1.7364    -0.3283    -1.9178 C.3     
  21 N21           -4.5310     0.8480    -0.3199 N.ar    
  22 C22           -5.7177     1.4157    -0.2158 C.ar    
  23 C23           -5.8343     2.7818    -0.0080 C.ar    
  24 C24           -4.6786     3.5553     0.0911 C.ar    
  25 C25           -3.4527     2.9245    -0.0169 C.ar    
  26 N26           -7.0968     3.3770     0.1005 N.3     
  27 C27           -7.2551     4.4579    -0.8807 C.3     
  28 C28           -8.5833     5.1783    -0.6382 C.3     
  29 C29           -8.1634     2.3767    -0.0345 C.3     
  30 C30           -9.5187     3.0350     0.2333 C.3     
  31 C31           -9.7332     4.1753    -0.7659 C.3     
  32 N32          -11.0063     4.8486    -0.4766 N.3     
  33 C33            1.8975    -5.6197    -2.1426 C.3     
  34 C34          -12.3708     6.8402    -0.8874 C.3     
  35 C35          -11.2449     5.9505    -1.4183 C.3     
  36 C36          -12.2589     3.2893    -1.8898 C.3     
  37 C37          -12.1222     3.8932    -0.4907 C.3     
  38 H38           -4.2013    -2.9534    -1.1297 H       
  39 H39           -2.1286    -7.6653    -2.3708 H       
  40 H40           -3.4175    -5.6446    -1.8132 H       
  41 H41           -1.3603     1.4009    -0.2039 H       
  42 H42            2.2435    -3.5894    -1.5461 H       
  43 H43            2.8691    -1.8584    -2.9878 H       
  44 H44            1.1195    -1.8352    -3.3731 H       
  45 H45            1.0377    -1.9240     0.4997 H       
  46 H46            2.7286    -2.4910     0.3985 H       
  47 H47            2.0071     0.1758     0.1897 H       
  48 H48            3.4650    -0.5081    -0.5955 H       
  49 H49            2.2904     0.4233    -2.4801 H       
  50 H50            0.6891    -0.0433    -1.8178 H       
  51 H51           -6.6082     0.8096    -0.2936 H       
  52 H52           -4.7393     4.6214     0.2528 H       
  53 H53           -2.5372     3.4928     0.0555 H       
  54 H54           -6.4333     5.1663    -0.7764 H       
  55 H55           -7.2477     4.0389    -1.8870 H       
  56 H56           -8.5860     5.6094     0.3629 H       
  57 H57           -8.7078     5.9705    -1.3765 H       
  58 H58           -8.1517     1.9675    -1.0447 H       
  59 H59           -8.0013     1.5736     0.6844 H       
  60 H60          -10.3115     2.2959     0.1176 H       
  61 H61           -9.5361     3.4324     1.2481 H       
  62 H62           -9.7547     3.7729    -1.7787 H       
  63 H63            2.3270    -5.7268    -1.1465 H       
  64 H64            2.2055    -6.4611    -2.7634 H       
  65 H65            2.2475    -4.6900    -2.5912 H       
  66 H66          -13.2563     6.2328    -0.7002 H       
  67 H67          -12.0523     7.3141     0.0411 H       
  68 H68          -12.6058     7.6077    -1.6249 H       
  69 H69          -10.3349     6.5409    -1.5248 H       
  70 H70          -11.5300     5.5440    -2.3886 H       
  71 H71          -13.1300     2.6348    -1.9195 H       
  72 H72          -12.3802     4.0890    -2.6204 H       
  73 H73          -11.3639     2.7138    -2.1262 H       
  74 H74          -11.9296     3.0990     0.2306 H       
  75 H75          -13.0452     4.4087    -0.2257 H       
@<TRIPOS>BOND
   1    1    2 ar
   2    1    6 ar
   3    2    3 ar
   4    2   14 1
   5    3    4 ar
   6    4    5 ar
   7    4    7 1
   8    5    6 ar
   9    5    9 1
  10    6   38 1
  11    7    8 1
  12    7   16 1
  13    8    9 ar
  14    8   10 ar
  15    9   13 ar
  16   10   11 ar
  17   10   33 1
  18   11   12 ar
  19   12   13 ar
  20   12   39 1
  21   13   40 1
  22   14   15 1
  23   14   41 1
  24   15   21 ar
  25   15   25 ar
  26   16   18 1
  27   16   17 1
  28   16   42 1
  29   17   20 1
  30   17   43 1
  31   17   44 1
  32   18   19 1
  33   18   45 1
  34   18   46 1
  35   19   20 1
  36   19   47 1
  37   19   48 1
  38   20   49 1
  39   20   50 1
  40   21   22 ar
  41   22   23 ar
  42   22   51 1
  43   23   24 ar
  44   23   26 1
  45   24   25 ar
  46   24   52 1
  47   25   53 1
  48   26   29 1
  49   26   27 1
  50   27   28 1
  51   27   54 1
  52   27   55 1
  53   28   31 1
  54   28   56 1
  55   28   57 1
  56   29   30 1
  57   29   58 1
  58   29   59 1
  59   30   31 1
  60   30   60 1
  61   30   61 1
  62   31   32 1
  63   31   62 1
  64   32   35 1
  65   32   37 1
  66   33   63 1
  67   33   64 1
  68   33   65 1
  69   34   35 1
  70   34   66 1
  71   34   67 1
  72   34   68 1
  73   35   69 1
  74   35   70 1
  75   36   37 1
  76   36   71 1
  77   36   72 1
  78   36   73 1
  79   37   74 1
  80   37   75 1

#	End of record

