#	Name: ASD01913980
#	Creating user name:	WinNT
#	Creation time:	15. 06. 2019 20:02

#	Modifying user name:	WinNT
#	Modification time:	15. 06. 2019 20:02

#	Program:	/corina/corina34_cracker 3.40 0067  02.08.2006

@<TRIPOS>MOLECULE
ASD01913980
  39   42    0    0    0
SMALL
NO_CHARGES


@<TRIPOS>ATOM
   1 N1            -0.0541     1.2972     0.0089 N.2     
   2 N2            -0.0590     0.0061     0.0600 N.pl3   
   3 C3             1.1844    -0.4424     0.2986 C.2     
   4 C4             2.0037     0.6662     0.3941 C.2     
   5 C5             1.1701     1.7660     0.2044 C.2     
   6 C6             3.4770     0.5334     0.6502 C.3     
   7 C7             1.7741    -1.7837     0.4661 C.ar    
   8 C8             1.0998    -2.9491     0.1414 C.ar    
   9 C9             1.7262    -4.1698     0.3117 C.ar    
  10 C10            3.0195    -4.2218     0.8021 C.ar    
  11 C11            3.6963    -3.0639     1.1346 C.ar    
  12 C12            3.0840    -1.8309     0.9797 C.ar    
  13 O13            3.7235    -0.6931     1.3445 O.3     
  14 C14            1.5744     3.1866     0.2183 C.2     
  15 O15            2.7372     3.4859     0.4093 O.2     
  16 N16            0.6542     4.1511     0.0194 N.am    
  17 C17            1.0172     5.4972     0.1290 C.ar    
  18 C18            2.2740     5.9142    -0.2872 C.ar    
  19 C19            2.6299     7.2490    -0.1774 C.ar    
  20 C20            1.7295     8.1655     0.3482 C.ar    
  21 C21            0.4790     7.7486     0.7625 C.ar    
  22 C22            0.1184     6.4196     0.6493 C.ar    
  23 O23            3.8597     7.6605    -0.5836 O.3     
  24 C24            4.1586     9.0506    -0.4410 C.3     
  25 H25           -0.8421    -0.5543    -0.0560 H       
  26 H26            4.0129     0.5288    -0.2990 H       
  27 H27            3.8181     1.3712     1.2583 H       
  28 H28            0.0911    -2.9045    -0.2418 H       
  29 H29            1.2063    -5.0830     0.0623 H       
  30 H30            3.5050    -5.1784     0.9266 H       
  31 H31            4.7051    -3.1203     1.5162 H       
  32 H32           -0.2598     3.9115    -0.1999 H       
  33 H33            2.9734     5.1997    -0.6956 H       
  34 H34            2.0069     9.2057     0.4338 H       
  35 H35           -0.2193     8.4636     1.1717 H       
  36 H36           -0.8613     6.0971     0.9697 H       
  37 H37            3.4469     9.6367    -1.0224 H       
  38 H38            4.0881     9.3315     0.6098 H       
  39 H39            5.1689     9.2438    -0.8018 H       
@<TRIPOS>BOND
   1    1    2 1
   2    1    5 2
   3    2    3 1
   4    2   25 1
   5    3    4 2
   6    3    7 1
   7    4    5 1
   8    4    6 1
   9    5   14 1
  10    6   13 1
  11    6   26 1
  12    6   27 1
  13    7    8 ar
  14    7   12 ar
  15    8    9 ar
  16    8   28 1
  17    9   10 ar
  18    9   29 1
  19   10   11 ar
  20   10   30 1
  21   11   12 ar
  22   11   31 1
  23   12   13 1
  24   14   15 2
  25   14   16 am
  26   16   17 1
  27   16   32 1
  28   17   18 ar
  29   17   22 ar
  30   18   19 ar
  31   18   33 1
  32   19   20 ar
  33   19   23 1
  34   20   21 ar
  35   20   34 1
  36   21   22 ar
  37   21   35 1
  38   22   36 1
  39   23   24 1
  40   24   37 1
  41   24   38 1
  42   24   39 1

#	End of record

