#	Name: ASD00311411
#	Creating user name:	WinNT
#	Creation time:	15. 06. 2019 18:34

#	Modifying user name:	WinNT
#	Modification time:	15. 06. 2019 18:34

#	Program:	/corina/corina34_cracker 3.40 0067  02.08.2006

@<TRIPOS>MOLECULE
ASD00311411
  42   45    0    0    0
SMALL
NO_CHARGES


@<TRIPOS>ATOM
   1 C1            -0.0167     1.3780     0.0096 C.2     
   2 C2             0.0021    -0.0041     0.0020 C.2     
   3 C3             1.2589    -0.6766    -0.0143 C.2     
   4 C4             2.4315     0.0675    -0.0223 C.2     
   5 C5             2.3574     1.4754    -0.0140 C.2     
   6 N6             1.1649     2.0906     0.0022 N.am    
   7 C7            -1.3430    -0.5749     0.0126 C.2     
   8 C8            -2.3221     0.3254     0.0274 C.2     
   9 S9            -1.6795     1.9559     0.0358 S.3     
  10 O10            3.3823     2.1375    -0.0208 O.2     
  11 C11            3.7477    -0.6117    -0.0388 C.ar    
  12 C12            4.5928    -0.4742    -1.1398 C.ar    
  13 C13            5.8179    -1.1090    -1.1491 C.ar    
  14 C14            6.2085    -1.8806    -0.0692 C.ar    
  15 C15            5.3745    -2.0211     1.0256 C.ar    
  16 C16            4.1494    -1.3866     1.0491 C.ar    
  17 O17            1.3089    -2.0290    -0.0217 O.3     
  18 C18           -2.0091    -4.7290    -0.0674 C.ar    
  19 C19           -2.6745    -3.9745     0.8917 C.ar    
  20 C20           -2.4709    -2.6087     0.9367 C.ar    
  21 C21           -1.5955    -2.0358     0.0069 C.ar    
  22 C22           -0.9656    -2.8578    -0.9239 C.ar    
  23 N23           -1.1880    -4.1572    -0.9323 N.ar    
  24 O24           -2.2003    -6.0717    -0.1134 O.3     
  25 C25           -1.4894    -6.7941    -1.1208 C.3     
  26 C26           -1.8295    -8.2822    -1.0171 C.3     
  27 H27            1.1327     3.0601     0.0073 H       
  28 H28           -3.3746     0.0835     0.0368 H       
  29 H29            4.2887     0.1275    -1.9835 H       
  30 H30            6.4730    -1.0037    -2.0012 H       
  31 H31            7.1683    -2.3755    -0.0811 H       
  32 H32            5.6848    -2.6250     1.8654 H       
  33 H33            3.5012    -1.4931     1.9063 H       
  34 H34            2.2062    -2.3893    -0.0327 H       
  35 H35           -3.3433    -4.4504     1.5936 H       
  36 H36           -2.9750    -1.9980     1.6711 H       
  37 H37           -0.2884    -2.4266    -1.6463 H       
  38 H38           -1.7768    -6.4235    -2.1047 H       
  39 H39           -0.4176    -6.6556    -0.9791 H       
  40 H40           -1.5421    -8.6529    -0.0331 H       
  41 H41           -2.9013    -8.4208    -1.1587 H       
  42 H42           -1.2872    -8.8333    -1.7855 H       
@<TRIPOS>BOND
   1    1    2 2
   2    1    6 1
   3    1    9 1
   4    2    3 1
   5    2    7 1
   6    3    4 2
   7    3   17 1
   8    4    5 1
   9    4   11 1
  10    5    6 am
  11    5   10 2
  12    6   27 1
  13    7    8 2
  14    7   21 1
  15    8    9 1
  16    8   28 1
  17   11   12 ar
  18   11   16 ar
  19   12   13 ar
  20   12   29 1
  21   13   14 ar
  22   13   30 1
  23   14   15 ar
  24   14   31 1
  25   15   16 ar
  26   15   32 1
  27   16   33 1
  28   17   34 1
  29   18   19 ar
  30   18   23 ar
  31   18   24 1
  32   19   20 ar
  33   19   35 1
  34   20   21 ar
  35   20   36 1
  36   21   22 ar
  37   22   23 ar
  38   22   37 1
  39   24   25 1
  40   25   26 1
  41   25   38 1
  42   25   39 1
  43   26   40 1
  44   26   41 1
  45   26   42 1

#	End of record

