#	Name: ASD08070644
#	Creating user name:	WinNT
#	Creation time:	15. 06. 2019 21:15

#	Modifying user name:	WinNT
#	Modification time:	15. 06. 2019 21:15

#	Program:	/corina/corina34_cracker 3.40 0067  02.08.2006

@<TRIPOS>MOLECULE
ASD08070644
  45   45    0    0    0
SMALL
NO_CHARGES


@<TRIPOS>ATOM
   1 C1            -0.0179     1.4718     0.0101 C.2     
   2 C2             0.0021    -0.0041     0.0020 C.ar    
   3 C3             1.2206    -0.6881    -0.0133 C.ar    
   4 C4             1.2351    -2.0649    -0.0209 C.ar    
   5 C5             0.0396    -2.7744    -0.0138 C.ar    
   6 C6            -1.1742    -2.0979     0.0014 C.ar    
   7 C7            -1.1971    -0.7209     0.0154 C.ar    
   8 O8             1.0266     2.0940     0.0035 O.2     
   9 N9            -1.1942     2.1298     0.0193 N.am    
  10 C10            2.5485    -2.8035    -0.0374 C.3     
  11 C11           -2.5311     4.0901    -0.5734 C.3     
  12 C12           -1.2140     3.5946     0.0273 C.3     
  13 C13           -1.0884     4.0984     1.4665 C.3     
  14 C14            0.2816     3.7091     2.0254 C.3     
  15 C15            0.4072     4.2130     3.4646 C.3     
  16 O16           -3.6169     3.6927     0.2663 O.3     
  17 C17           -4.8997     4.1078    -0.2070 C.3     
  18 O18            0.0580    -4.1314    -0.0222 O.3     
  19 C19           -1.2062    -4.7974    -0.0142 C.3     
  20 C20           -0.9852    -6.3113    -0.0255 C.3     
  21 H21            2.1498    -0.1376    -0.0195 H       
  22 H22           -2.1008    -2.6527     0.0069 H       
  23 H23           -2.1407    -0.1959     0.0317 H       
  24 H24           -2.0275     1.6334     0.0205 H       
  25 H25            2.8750    -2.9872     0.9862 H       
  26 H26            2.4240    -3.7546    -0.5552 H       
  27 H27            3.2965    -2.2031    -0.5551 H       
  28 H28           -2.5095     5.1772    -0.6493 H       
  29 H29           -2.6626     3.6591    -1.5658 H       
  30 H30           -0.3800     3.9725    -0.5640 H       
  31 H31           -1.1922     5.1834     1.4820 H       
  32 H32           -1.8712     3.6498     2.0782 H       
  33 H33            0.3854     2.6242     2.0099 H       
  34 H34            1.0644     4.1578     1.4138 H       
  35 H35            1.3832     3.9357     3.8628 H       
  36 H36            0.3034     5.2979     3.4801 H       
  37 H37           -0.3755     3.7643     4.0763 H       
  38 H38           -4.9274     5.1953    -0.2753 H       
  39 H39           -5.0804     3.6772    -1.1919 H       
  40 H40           -5.6700     3.7676     0.4852 H       
  41 H41           -1.7587    -4.5175     0.8828 H       
  42 H42           -1.7756    -4.5067    -0.8970 H       
  43 H43           -0.4328    -6.5912    -0.9225 H       
  44 H44           -0.4159    -6.6020     0.8574 H       
  45 H45           -1.9496    -6.8193    -0.0193 H       
@<TRIPOS>BOND
   1    1    2 1
   2    1    8 2
   3    1    9 am
   4    2    3 ar
   5    2    7 ar
   6    3    4 ar
   7    3   21 1
   8    4    5 ar
   9    4   10 1
  10    5    6 ar
  11    5   18 1
  12    6    7 ar
  13    6   22 1
  14    7   23 1
  15    9   12 1
  16    9   24 1
  17   10   25 1
  18   10   26 1
  19   10   27 1
  20   11   12 1
  21   11   16 1
  22   11   28 1
  23   11   29 1
  24   12   13 1
  25   12   30 1
  26   13   14 1
  27   13   31 1
  28   13   32 1
  29   14   15 1
  30   14   33 1
  31   14   34 1
  32   15   35 1
  33   15   36 1
  34   15   37 1
  35   16   17 1
  36   17   38 1
  37   17   39 1
  38   17   40 1
  39   18   19 1
  40   19   20 1
  41   19   41 1
  42   19   42 1
  43   20   43 1
  44   20   44 1
  45   20   45 1

#	End of record

