#	Name: ASD01815613
#	Creating user name:	WinNT
#	Creation time:	15. 06. 2019 19:33

#	Modifying user name:	WinNT
#	Modification time:	15. 06. 2019 19:33

#	Program:	/corina/corina34_cracker 3.40 0067  02.08.2006

@<TRIPOS>MOLECULE
ASD01815613
  37   39    0    0    0
SMALL
NO_CHARGES


@<TRIPOS>ATOM
   1 C1             0.1029     1.4770     0.3855 C.ar    
   2 C2             0.0842     0.0898     0.3774 C.ar    
   3 C3             1.2530    -0.6296     0.2376 C.ar    
   4 C4             2.4693     0.0388     0.1020 C.ar    
   5 C5             2.4835     1.4435     0.1102 C.ar    
   6 C6             1.2935     2.1570     0.2529 C.ar    
   7 N7             3.6450    -0.6678    -0.0380 N.pl3   
   8 C8             4.8373    -0.0734    -0.1705 C.2     
   9 C9             4.9778     1.3000    -0.1770 C.2     
  10 C10            3.7766     2.1382    -0.0341 C.2     
  11 O11            3.8474     3.3547    -0.0341 O.2     
  12 C12            6.3047     1.9146    -0.3243 C.2     
  13 O13            7.2901     1.2125    -0.4417 O.2     
  14 O14            6.4289     3.2569    -0.3292 O.3     
  15 C15            3.5871    -2.1316    -0.0416 C.3     
  16 C16            3.4443    -2.6253    -1.4583 C.ar    
  17 C17            4.5637    -2.7674    -2.2565 C.ar    
  18 C18            4.4342    -3.2198    -3.5566 C.ar    
  19 C19            3.1852    -3.5303    -4.0594 C.ar    
  20 C20            2.0630    -3.3887    -3.2605 C.ar    
  21 C21            2.1945    -2.9410    -1.9571 C.ar    
  22 F22            1.2192    -1.9802     0.2325 F       
  23 F23            0.8412    -3.6919    -3.7511 F       
  24 F24            6.1746    -4.6643    -4.2763 F       
  25 F25            5.3053    -3.1641    -5.7639 F       
  26 C26            5.6556    -3.3738    -4.4258 C.3     
  27 F27            6.6209    -2.4359    -4.0440 F       
  28 H28           -0.8208     2.0264     0.4917 H       
  29 H29           -0.8554    -0.4324     0.4821 H       
  30 H30            1.3053     3.2369     0.2588 H       
  31 H31            5.7185    -0.6888    -0.2753 H       
  32 H32            7.3217     3.6148    -0.4287 H       
  33 H33            4.5031    -2.5325     0.3922 H       
  34 H34            2.7312    -2.4628     0.5466 H       
  35 H35            5.5403    -2.5246    -1.8644 H       
  36 H36            3.0842    -3.8829    -5.0752 H       
  37 H37            1.3200    -2.8302    -1.3331 H       
@<TRIPOS>BOND
   1    1    2 ar
   2    1    6 ar
   3    1   28 1
   4    2    3 ar
   5    2   29 1
   6    3    4 ar
   7    3   22 1
   8    4    5 ar
   9    4    7 1
  10    5    6 ar
  11    5   10 1
  12    6   30 1
  13    7    8 1
  14    7   15 1
  15    8    9 2
  16    8   31 1
  17    9   10 1
  18    9   12 1
  19   10   11 2
  20   12   13 2
  21   12   14 1
  22   14   32 1
  23   15   16 1
  24   15   33 1
  25   15   34 1
  26   16   17 ar
  27   16   21 ar
  28   17   18 ar
  29   17   35 1
  30   18   19 ar
  31   18   26 1
  32   19   20 ar
  33   19   36 1
  34   20   21 ar
  35   20   23 1
  36   21   37 1
  37   24   26 1
  38   25   26 1
  39   26   27 1

#	End of record

