#	Name: ASD08170317
#	Creating user name:	WinNT
#	Creation time:	15. 06. 2019 21:17

#	Modifying user name:	WinNT
#	Modification time:	15. 06. 2019 21:17

#	Program:	/corina/corina34_cracker 3.40 0067  02.08.2006

@<TRIPOS>MOLECULE
ASD08170317
  50   51    0    0    0
SMALL
NO_CHARGES


@<TRIPOS>ATOM
   1 C1            -0.0162     1.3436     0.0094 C.2     
   2 N2             0.0021    -0.0041     0.0020 N.am    
   3 C3             1.2158    -0.6830    -0.0132 C.2     
   4 S4             1.4076    -2.3853    -0.0242 S.3     
   5 C5             3.1580    -2.1679    -0.0404 C.2     
   6 C6             4.1900    -3.2660    -0.0570 C.3     
   7 C7             5.9649    -5.1406     2.7999 C.3     
   8 C8             6.9968    -6.2387     2.7833 C.2     
   9 S9             6.6713    -7.9723     2.7767 S.3     
  10 C10            8.3583    -8.2694     2.7582 C.2     
  11 N11            2.3916    -0.1314    -0.0272 N.2     
  12 N12            3.3971    -0.8949    -0.0360 N.2     
  13 N13            8.2821    -6.0790     2.7658 N.2     
  14 N14            8.9817    -7.1299     2.7585 N.2     
  15 O15            1.0258     1.9642     0.0028 O.2     
  16 C16           -1.3314     2.0792     0.0197 C.3     
  17 C17            4.5536    -3.6458     1.3798 C.3     
  18 C18            5.6013    -4.7607     1.3631 C.3     
  19 N19            8.9606    -9.5229     2.7455 N.am    
  20 C20           10.3044    -9.6248     2.7315 C.2     
  21 O21           10.9885    -8.6233     2.7299 O.2     
  22 C22           10.9570   -10.9831     2.7177 C.3     
  23 N23           12.3469   -10.8632     3.1781 N.3     
  24 C24           10.9379   -11.5437     1.2942 C.3     
  25 N25           -1.1256     3.4567    -0.4475 N.3     
  26 O26           11.4503   -12.8776     1.3007 O.3     
  27 C27           -1.8920     2.1019     1.4431 C.3     
  28 O28           -3.1916     2.6960     1.4338 O.3     
  29 H29           -0.8313    -0.5005     0.0073 H       
  30 H30            3.7851    -4.1373    -0.5717 H       
  31 H31            5.0822    -2.9183    -0.5777 H       
  32 H32            5.0727    -5.4882     3.3206 H       
  33 H33            6.3698    -4.2692     3.3146 H       
  34 H34           -2.0359     1.5732    -0.6403 H       
  35 H35            4.9585    -2.7745     1.8946 H       
  36 H36            3.6614    -3.9935     1.9006 H       
  37 H37            6.4935    -4.4131     0.8423 H       
  38 H38            5.1964    -5.6320     0.8483 H       
  39 H39            8.4135   -10.3239     2.7467 H       
  40 H40           10.4115   -11.6550     3.3802 H       
  41 H41           12.8740   -10.2450     2.5798 H       
  42 H42           12.3844   -10.5560     4.1385 H       
  43 H43            9.9142   -11.5495     0.9198 H       
  44 H44           11.5570   -10.9197     0.6496 H       
  45 H45           -2.0025     3.9517    -0.5112 H       
  46 H46           -0.4758     3.9473     0.1484 H       
  47 H47           11.4676   -13.2965     0.4293 H       
  48 H48           -1.9613     1.0824     1.8225 H       
  49 H49           -1.2308     2.6843     2.0848 H       
  50 H50           -3.6086     2.7436     2.3049 H       
@<TRIPOS>BOND
   1    1    2 am
   2    1   15 2
   3    1   16 1
   4    2    3 1
   5    2   29 1
   6    3    4 1
   7    3   11 2
   8    4    5 1
   9    5    6 1
  10    5   12 2
  11    6   17 1
  12    6   30 1
  13    6   31 1
  14    7    8 1
  15    7   18 1
  16    7   32 1
  17    7   33 1
  18    8    9 1
  19    8   13 2
  20    9   10 1
  21   10   19 1
  22   10   14 2
  23   11   12 1
  24   13   14 1
  25   16   25 1
  26   16   27 1
  27   16   34 1
  28   17   18 1
  29   17   35 1
  30   17   36 1
  31   18   37 1
  32   18   38 1
  33   19   20 am
  34   19   39 1
  35   20   21 2
  36   20   22 1
  37   22   23 1
  38   22   24 1
  39   22   40 1
  40   23   41 1
  41   23   42 1
  42   24   26 1
  43   24   43 1
  44   24   44 1
  45   25   45 1
  46   25   46 1
  47   26   47 1
  48   27   28 1
  49   27   48 1
  50   27   49 1
  51   28   50 1

#	End of record

