#	Name: ASD01140068
#	Creating user name:	WinNT
#	Creation time:	15. 06. 2019 18:59

#	Modifying user name:	WinNT
#	Modification time:	15. 06. 2019 18:59

#	Program:	/corina/corina34_cracker 3.40 0067  02.08.2006

@<TRIPOS>MOLECULE
ASD01140068
  74   78    0    0    0
SMALL
NO_CHARGES


@<TRIPOS>ATOM
   1 C1             0.0427     3.2785    -1.1089 C.3     
   2 C2            -0.3428     1.7996    -1.1353 C.3     
   3 C3             0.0754     1.1226     0.1721 C.3     
   4 C4             1.5844     1.2777     0.3638 C.3     
   5 C5             1.9603     2.7561     0.4217 C.3     
   6 C6             1.5475     3.4332    -0.8844 C.3     
   7 C7             2.0374     0.5428     1.6225 C.3     
   8 C8             3.5556     0.6845     1.7920 C.3     
   9 C9             4.1042     1.4986     0.6209 C.3     
  10 C10            3.4745     2.8903     0.6375 C.3     
  11 C11            5.5953     1.5607     0.5882 C.3     
  12 C12            6.1578     2.9809     0.8108 C.3     
  13 C13            5.6361     3.9083    -0.2561 C.3     
  14 C14            4.1099     3.8109    -0.3880 C.3     
  15 C15            6.3977     0.7582     1.6225 C.3     
  16 C16            7.8400     1.2729     1.3288 C.3     
  17 C17            7.6752     2.6964     0.7387 C.3     
  18 C18           -1.8607     1.6764    -1.3023 C.3     
  19 C19            1.2596     3.4454     1.5967 C.3     
  20 C20            5.8943     3.5292     2.2113 C.3     
  21 C21            8.4179     3.7026     1.5743 C.2     
  22 C22            8.8655     5.0056     0.9637 C.3     
  23 O23            8.6555     3.4663     2.7345 O.2     
  24 H24            2.0758     0.8209    -0.5054 H       
  25 O25            0.3039     1.1557    -2.2355 O.3     
  26 O26           -2.2571     2.2967    -2.5271 O.3     
  27 C27           -3.6622     2.2373    -2.7806 C.3     
  28 C28           -3.9655     2.9178    -4.0906 C.ar    
  29 C29           -3.9570     2.1900    -5.2658 C.ar    
  30 C30           -4.2352     2.8143    -6.4674 C.ar    
  31 C31           -4.5223     4.1662    -6.4937 C.ar    
  32 C32           -4.5317     4.8938    -5.3184 C.ar    
  33 C33           -4.2578     4.2687    -4.1162 C.ar    
  34 H34           -0.2164     3.7264    -2.0756 H       
  35 H35           -0.5175     3.7947    -0.3339 H       
  36 H36           -0.4692     1.5514     1.0065 H       
  37 H37           -0.1646     0.0556     0.1089 H       
  38 H38            2.0825     2.9752    -1.7177 H       
  39 H39            1.7944     4.4953    -0.8383 H       
  40 H40            1.5294     0.9318     2.5007 H       
  41 H41            1.7935    -0.5202     1.5208 H       
  42 H42            3.7712     1.1958     2.7291 H       
  43 H43            4.0141    -0.3041     1.7976 H       
  44 H44            3.7789     0.9927    -0.3093 H       
  45 H45            3.5683     3.3267     1.6366 H       
  46 H46            5.9305     1.2156    -0.4175 H       
  47 H47            5.9148     4.9428    -0.0139 H       
  48 H48            6.1011     3.6576    -1.2198 H       
  49 H49            3.8692     3.4517    -1.3976 H       
  50 H50            3.6812     4.8167    -0.2865 H       
  51 H51            6.0982     0.9685     2.6387 H       
  52 H52            6.3331    -0.3107     1.4098 H       
  53 H53            8.4135     1.3131     2.2525 H       
  54 H54            8.3244     0.6205     0.6053 H       
  55 H55            8.0030     2.7260    -0.2950 H       
  56 H56           -2.1398     0.6229    -1.3216 H       
  57 H57           -2.3593     2.1691    -0.4676 H       
  58 H58            1.5599     2.9681     2.5295 H       
  59 H59            1.5407     4.4982     1.6204 H       
  60 H60            0.1796     3.3602     1.4763 H       
  61 H61            6.4777     2.9643     2.9383 H       
  62 H62            6.1833     4.5794     2.2506 H       
  63 H63            4.8337     3.4352     2.4446 H       
  64 H64            7.9964     5.5545     0.6012 H       
  65 H65            9.3832     5.6006     1.7161 H       
  66 H66            9.5408     4.8042     0.1321 H       
  67 H67            0.0727     1.5252    -3.0987 H       
  68 H68           -3.9786     1.1954    -2.8306 H       
  69 H69           -4.1981     2.7416    -1.9765 H       
  70 H70           -3.7327     1.1338    -5.2452 H       
  71 H71           -4.2279     2.2458    -7.3856 H       
  72 H72           -4.7390     4.6541    -7.4325 H       
  73 H73           -4.7557     5.9501    -5.3390 H       
  74 H74           -4.2651     4.8371    -3.1980 H       
@<TRIPOS>BOND
   1    1    2 1
   2    1    6 1
   3    1   34 1
   4    1   35 1
   5    2    3 1
   6    2   25 1
   7    2   18 1
   8    3    4 1
   9    3   36 1
  10    3   37 1
  11    4    5 1
  12    4    7 1
  13    4   24 1
  14    5    6 1
  15    5   19 1
  16    5   10 1
  17    6   38 1
  18    6   39 1
  19    7    8 1
  20    7   40 1
  21    7   41 1
  22    8    9 1
  23    8   42 1
  24    8   43 1
  25    9   10 1
  26    9   11 1
  27    9   44 1
  28   10   14 1
  29   10   45 1
  30   11   12 1
  31   11   15 1
  32   11   46 1
  33   12   13 1
  34   12   20 1
  35   12   17 1
  36   13   14 1
  37   13   47 1
  38   13   48 1
  39   14   49 1
  40   14   50 1
  41   15   16 1
  42   15   51 1
  43   15   52 1
  44   16   17 1
  45   16   53 1
  46   16   54 1
  47   17   21 1
  48   17   55 1
  49   18   26 1
  50   18   56 1
  51   18   57 1
  52   19   58 1
  53   19   59 1
  54   19   60 1
  55   20   61 1
  56   20   62 1
  57   20   63 1
  58   21   22 1
  59   21   23 2
  60   22   64 1
  61   22   65 1
  62   22   66 1
  63   25   67 1
  64   26   27 1
  65   27   28 1
  66   27   68 1
  67   27   69 1
  68   28   29 ar
  69   28   33 ar
  70   29   30 ar
  71   29   70 1
  72   30   31 ar
  73   30   71 1
  74   31   32 ar
  75   31   72 1
  76   32   33 ar
  77   32   73 1
  78   33   74 1

#	End of record

