#	Name: ASD00450024
#	Creating user name:	WinNT
#	Creation time:	15. 06. 2019 18:36

#	Modifying user name:	WinNT
#	Modification time:	15. 06. 2019 18:36

#	Program:	/corina/corina34_cracker 3.40 0067  02.08.2006

@<TRIPOS>MOLECULE
ASD00450024
  50   52    0    0    0
SMALL
NO_CHARGES


@<TRIPOS>ATOM
   1 C1            -0.0005     3.5444     3.8355 C.ar    
   2 C2            -0.2875     3.2006     5.1493 C.ar    
   3 C3             0.7152     3.2376     6.1098 C.ar    
   4 C4             1.9966     3.6164     5.7580 C.ar    
   5 C5             2.2842     3.9589     4.4508 C.ar    
   6 C6             1.2862     3.9234     3.4863 C.ar    
   7 O7             1.5705     4.2605     2.2011 O.3     
   8 C8             2.8485     4.6153     1.9020 C.ar    
   9 N9            -1.5848     2.8180     5.5056 N.pl3   
  10 C10           -2.6687     3.4218     4.9094 C.2     
  11 N11           -3.9440     3.0395     5.2534 N.pl3   
  12 N12           -2.4862     4.3559     4.0189 N.2     
  13 C13            3.8152     3.6369     1.7201 C.ar    
  14 C14            3.1841     5.9554     1.7733 C.ar    
  15 C15            4.4816     6.3163     1.4687 C.ar    
  16 C16            5.4508     5.3378     1.2916 C.ar    
  17 C17            5.1134     3.9966     1.4163 C.ar    
  18 N18            6.7673     5.7032     0.9826 N.pl3   
  19 C19            7.8204     4.9789     1.4932 C.2     
  20 N20            9.1144     5.3420     1.1947 N.pl3   
  21 N21            7.5926     3.9492     2.2593 N.2     
  22 C22            9.3634     6.5167     0.4764 C.ar    
  23 C23            8.8813     8.8245     0.0377 C.ar    
  24 C24            8.6331     7.6661     0.7480 C.ar    
  25 C25           10.3456     6.5368    -0.5055 C.ar    
  26 C26           10.5897     7.6975    -1.2126 C.ar    
  27 C27            9.8567     8.8403    -0.9435 C.ar    
  28 C28           11.6555     7.7202    -2.2777 C.3     
  29 Cl29          10.1657    10.2977    -1.8346 Cl      
  30 F30           12.2541     6.4588    -2.3654 F       
  31 F31           11.0776     8.0487    -3.5087 F       
  32 F32           12.6242     8.6742    -1.9480 F       
  33 H33           -0.7773     3.5122     3.0858 H       
  34 H34            0.4931     2.9703     7.1324 H       
  35 H35            2.7747     3.6452     6.5064 H       
  36 H36            3.2867     4.2549     4.1790 H       
  37 H37           -1.7207     2.1272     6.1729 H       
  38 H38           -4.0820     2.3975     5.9673 H       
  39 H39           -4.7057     3.4119     4.7821 H       
  40 H40           -3.2500     4.7813     3.5988 H       
  41 H41            3.5525     2.5938     1.8164 H       
  42 H42            2.4302     6.7163     1.9110 H       
  43 H43            4.7426     7.3594     1.3678 H       
  44 H44            5.8659     3.2349     1.2754 H       
  45 H45            6.9367     6.4668     0.4089 H       
  46 H46            9.8534     4.7835     1.4823 H       
  47 H47            8.3303     3.3957     2.5598 H       
  48 H48            8.3133     9.7186     0.2483 H       
  49 H49            7.8715     7.6542     1.5135 H       
  50 H50           10.9181     5.6455    -0.7156 H       
@<TRIPOS>BOND
   1    1    2 ar
   2    1    6 ar
   3    1   33 1
   4    2    3 ar
   5    2    9 1
   6    3    4 ar
   7    3   34 1
   8    4    5 ar
   9    4   35 1
  10    5    6 ar
  11    5   36 1
  12    6    7 1
  13    7    8 1
  14    8   14 ar
  15    8   13 ar
  16    9   10 1
  17    9   37 1
  18   10   11 1
  19   10   12 2
  20   11   38 1
  21   11   39 1
  22   12   40 1
  23   13   17 ar
  24   13   41 1
  25   14   15 ar
  26   14   42 1
  27   15   16 ar
  28   15   43 1
  29   16   17 ar
  30   16   18 1
  31   17   44 1
  32   18   19 1
  33   18   45 1
  34   19   20 1
  35   19   21 2
  36   20   22 1
  37   20   46 1
  38   21   47 1
  39   22   25 ar
  40   22   24 ar
  41   23   24 ar
  42   23   27 ar
  43   23   48 1
  44   24   49 1
  45   25   26 ar
  46   25   50 1
  47   26   27 ar
  48   26   28 1
  49   27   29 1
  50   28   30 1
  51   28   31 1
  52   28   32 1

#	End of record

