#	Name: ASD02508259
#	Creating user name:	WinNT
#	Creation time:	15. 06. 2019 20:24

#	Modifying user name:	WinNT
#	Modification time:	15. 06. 2019 20:24

#	Program:	/corina/corina34_cracker 3.40 0067  02.08.2006

@<TRIPOS>MOLECULE
ASD02508259
  54   57    0    0    0
SMALL
NO_CHARGES


@<TRIPOS>ATOM
   1 C1             0.2482     0.6124    -0.3446 C.ar    
   2 C2             0.0011    -0.7453    -0.5455 C.ar    
   3 C3            -1.2922    -1.2320    -0.4367 C.ar    
   4 C4            -2.3285    -0.3718    -0.1303 C.ar    
   5 C5            -2.0823     0.9756     0.0685 C.ar    
   6 C6            -0.7960     1.4689    -0.0324 C.ar    
   7 S7            -3.9717    -0.9926     0.0075 S.o2    
   8 N8            -4.2470    -1.2990     1.6115 N.am    
   9 C9            -3.4664    -2.2418     2.2872 C.ar    
  10 N10            1.6196     0.7979    -0.5179 N.am    
  11 C11            2.1571    -0.4032    -0.8092 C.2     
  12 O12            1.1896    -1.3335    -0.8270 O.3     
  13 O13           -4.8360     0.0768    -0.3509 O.2     
  14 O14           -3.9810    -2.2528    -0.6490 O.2     
  15 C15            2.3435     2.0664    -0.4042 C.3     
  16 O16            3.3359    -0.6119    -1.0227 O.2     
  17 C17           -2.9426    -1.9429     3.5384 C.ar    
  18 C18           -3.2185    -3.4806     1.7109 C.ar    
  19 C19           -2.4473    -4.4108     2.3806 C.ar    
  20 C20           -1.9223    -4.1089     3.6255 C.ar    
  21 C21           -2.1723    -2.8759     4.2042 C.ar    
  22 C22           -1.5993    -2.5502     5.5595 C.3     
  23 C23           -0.5304     2.9363     0.1850 C.3     
  24 F24           -1.1691    -5.0205     4.2790 F       
  25 N25           -0.4032     3.6087    -1.1148 N.3     
  26 C26           -0.3807     5.0680    -0.9523 C.3     
  27 C27           -0.1021     5.7289    -2.3043 C.3     
  28 C28           -1.1932     5.3241    -3.2993 C.3     
  29 C29           -1.2279     3.7976    -3.4136 C.3     
  30 C30           -1.4739     3.1927    -2.0296 C.3     
  31 H31           -1.4894    -2.2825    -0.5916 H       
  32 H32           -2.8976     1.6425     0.3071 H       
  33 H33           -4.9499    -0.8243     2.0822 H       
  34 H34            2.6733     2.2055     0.6254 H       
  35 H35            3.2106     2.0504    -1.0645 H       
  36 H36            1.6852     2.8872    -0.6888 H       
  37 H37           -3.1373    -0.9814     3.9901 H       
  38 H38           -3.6284    -3.7168     0.7401 H       
  39 H39           -2.2542    -5.3744     1.9327 H       
  40 H40           -0.6184    -2.0905     5.4383 H       
  41 H41           -2.2632    -1.8583     6.0779 H       
  42 H42           -1.5020    -3.4660     6.1424 H       
  43 H43           -1.3571     3.3765     0.7425 H       
  44 H44            0.3942     3.0584     0.7493 H       
  45 H45           -1.3457     5.4063    -0.5748 H       
  46 H46            0.4022     5.3428    -0.2455 H       
  47 H47           -0.1010     6.8125    -2.1863 H       
  48 H48            0.8690     5.4017    -2.6760 H       
  49 H49           -2.1595     5.6851    -2.9471 H       
  50 H50           -0.9751     5.7576    -4.2753 H       
  51 H51           -2.0311     3.5013    -4.0882 H       
  52 H52           -0.2746     3.4400    -3.8028 H       
  53 H53           -1.4849     2.1054    -2.1051 H       
  54 H54           -2.4337     3.5398    -1.6469 H       
@<TRIPOS>BOND
   1    1    2 ar
   2    1   10 1
   3    1    6 ar
   4    2    3 ar
   5    2   12 1
   6    3    4 ar
   7    3   31 1
   8    4    5 ar
   9    4    7 1
  10    5    6 ar
  11    5   32 1
  12    6   23 1
  13    7    8 am
  14    7   13 2
  15    7   14 2
  16    8    9 1
  17    8   33 1
  18    9   17 ar
  19    9   18 ar
  20   10   11 am
  21   10   15 1
  22   11   12 1
  23   11   16 2
  24   15   34 1
  25   15   35 1
  26   15   36 1
  27   17   21 ar
  28   17   37 1
  29   18   19 ar
  30   18   38 1
  31   19   20 ar
  32   19   39 1
  33   20   21 ar
  34   20   24 1
  35   21   22 1
  36   22   40 1
  37   22   41 1
  38   22   42 1
  39   23   25 1
  40   23   43 1
  41   23   44 1
  42   25   26 1
  43   25   30 1
  44   26   27 1
  45   26   45 1
  46   26   46 1
  47   27   28 1
  48   27   47 1
  49   27   48 1
  50   28   29 1
  51   28   49 1
  52   28   50 1
  53   29   30 1
  54   29   51 1
  55   29   52 1
  56   30   53 1
  57   30   54 1

#	End of record

