#	Name: ASD01150993
#	Creating user name:	WinNT
#	Creation time:	15. 06. 2019 19:05

#	Modifying user name:	WinNT
#	Modification time:	15. 06. 2019 19:05

#	Program:	/corina/corina34_cracker 3.40 0067  02.08.2006

@<TRIPOS>MOLECULE
ASD01150993
  53   55    0    0    0
SMALL
NO_CHARGES


@<TRIPOS>ATOM
   1 C1            -0.0067     1.4131    -0.5182 C.2     
   2 C2            -0.0039     0.0285    -0.5039 C.2     
   3 N3            -1.2868    -0.3688    -0.7385 N.2     
   4 C4            -2.0272     0.6862    -0.8867 C.2     
   5 O5            -1.2759     1.7908    -0.7528 O.3     
   6 C6            -3.5088     0.6737    -1.1621 C.3     
   7 C7            -4.2739     0.6842     0.1629 C.3     
   8 N8             1.0796     2.2433    -0.3238 N.am    
   9 C9             1.1538    -0.8412    -0.2800 C.2     
  10 O10            1.0032    -2.1816    -0.2947 O.3     
  11 O11            2.2506    -0.3546    -0.0809 O.2     
  12 C12            2.1933    -2.9812    -0.0654 C.3     
  13 C13            1.8281    -4.4660    -0.1186 C.3     
  14 C14            0.9215     3.5811    -0.3666 C.2     
  15 O15           -0.1776     4.0570    -0.5764 O.2     
  16 C16            2.0806     4.4669    -0.1591 C.2     
  17 C17            2.0702     5.8478    -0.1748 C.2     
  18 N18            3.3293     6.2617     0.0565 N.pl3   
  19 N19            4.1431     5.1351     0.2199 N.2     
  20 C20            3.4102     4.0625     0.0993 C.2     
  21 C21            0.8699     6.7287    -0.4080 C.3     
  22 C22            3.7541     7.5956     0.1223 C.ar    
  23 C23            3.0127     8.5274     0.8364 C.ar    
  24 C24            3.4339     9.8413     0.8993 C.ar    
  25 C25            4.5925    10.2292     0.2516 C.ar    
  26 C26            5.3330     9.3035    -0.4604 C.ar    
  27 C27            4.9202     7.9869    -0.5219 C.ar    
  28 C28            0.7614     7.0588    -1.8980 C.3     
  29 C29           -0.5231     7.8501    -2.1528 C.3     
  30 H30           -3.7777     1.5553    -1.7439 H       
  31 H31           -3.7665    -0.2245    -1.7233 H       
  32 H32           -4.0050    -0.1974     0.7447 H       
  33 H33           -4.0162     1.5824     0.7241 H       
  34 H34           -5.3455     0.6752    -0.0363 H       
  35 H35            1.9563     1.8636    -0.1564 H       
  36 H36            2.9328    -2.7611    -0.8354 H       
  37 H37            2.6074    -2.7437     0.9145 H       
  38 H38            1.4141    -4.7035    -1.0985 H       
  39 H39            2.7216    -5.0663     0.0535 H       
  40 H40            1.0887    -4.6861     0.6514 H       
  41 H41            3.7596     3.0435     0.1762 H       
  42 H42           -0.0313     6.2078    -0.0847 H       
  43 H43            0.9803     7.6515     0.1615 H       
  44 H44            2.1074     8.2252     1.3418 H       
  45 H45            2.8577    10.5665     1.4546 H       
  46 H46            4.9194    11.2573     0.3017 H       
  47 H47            6.2374     9.6095    -0.9652 H       
  48 H48            5.4990     7.2644    -1.0781 H       
  49 H49            1.6218     7.6552    -2.2017 H       
  50 H50            0.7388     6.1339    -2.4744 H       
  51 H51           -0.6004     8.0852    -3.2143 H       
  52 H52           -1.3835     7.2537    -1.8492 H       
  53 H53           -0.5005     8.7749    -1.5765 H       
@<TRIPOS>BOND
   1    1    2 2
   2    1    8 1
   3    1    5 1
   4    2    3 1
   5    2    9 1
   6    3    4 2
   7    4    5 1
   8    4    6 1
   9    6    7 1
  10    6   30 1
  11    6   31 1
  12    7   32 1
  13    7   33 1
  14    7   34 1
  15    8   14 am
  16    8   35 1
  17    9   10 1
  18    9   11 2
  19   10   12 1
  20   12   13 1
  21   12   36 1
  22   12   37 1
  23   13   38 1
  24   13   39 1
  25   13   40 1
  26   14   15 2
  27   14   16 1
  28   16   17 2
  29   16   20 1
  30   17   18 1
  31   17   21 1
  32   18   19 1
  33   18   22 1
  34   19   20 2
  35   20   41 1
  36   21   28 1
  37   21   42 1
  38   21   43 1
  39   22   23 ar
  40   22   27 ar
  41   23   24 ar
  42   23   44 1
  43   24   25 ar
  44   24   45 1
  45   25   26 ar
  46   25   46 1
  47   26   27 ar
  48   26   47 1
  49   27   48 1
  50   28   29 1
  51   28   49 1
  52   28   50 1
  53   29   51 1
  54   29   52 1
  55   29   53 1

#	End of record

