#	Name: ASD01884439
#	Creating user name:	WinNT
#	Creation time:	15. 06. 2019 19:48

#	Modifying user name:	WinNT
#	Modification time:	15. 06. 2019 19:48

#	Program:	/corina/corina34_cracker 3.40 0067  02.08.2006

@<TRIPOS>MOLECULE
ASD01884439
  39   41    0    0    0
SMALL
NO_CHARGES


@<TRIPOS>ATOM
   1 C1            -0.0164     1.3576     0.0095 C.2     
   2 C2             0.0021    -0.0041     0.0020 C.2     
   3 C3             1.2439    -0.6751    -0.0134 C.2     
   4 C4             2.4024     0.0464    -0.0206 C.2     
   5 N5             2.3700     1.4025    -0.0130 N.am    
   6 C6             1.1985     2.0653     0.0017 C.2     
   7 C7             1.2896    -2.1583    -0.0214 C.ar    
   8 C8             3.6265     2.1557    -0.0210 C.3     
   9 O9             1.1909     3.2858     0.0087 O.2     
  10 C10            4.0438     2.4215    -1.4444 C.ar    
  11 C11            3.6196     3.5704    -2.0857 C.ar    
  12 C12            4.0020     3.8148    -3.3912 C.ar    
  13 C13            4.8095     2.9094    -4.0563 C.ar    
  14 C14            5.2337     1.7597    -3.4140 C.ar    
  15 C15            4.8552     1.5192    -2.1066 C.ar    
  16 C16            1.0106    -2.8716     1.1422 C.ar    
  17 C17            1.6067    -2.8423    -1.1963 C.ar    
  18 C18            1.6481    -4.2229    -1.1991 C.ar    
  19 C19            1.3744    -4.9287    -0.0358 C.ar    
  20 C20            1.0538    -4.2506     1.1321 C.ar    
  21 Cl21           5.2897     3.2154    -5.6962 Cl      
  22 F22            1.8721    -2.1550    -2.3287 F       
  23 O23            1.4154    -6.2871    -0.0415 O.3     
  24 C24            1.1232    -6.9501     1.1902 C.3     
  25 H25           -0.9563     1.8895     0.0169 H       
  26 H26           -0.9217    -0.5635     0.0082 H       
  27 H27            3.3527    -0.4665    -0.0321 H       
  28 H28            3.4856     3.1030     0.4993 H       
  29 H29            4.4005     1.5763     0.4824 H       
  30 H30            2.9891     4.2770    -1.5665 H       
  31 H31            3.6703     4.7123    -3.8922 H       
  32 H32            5.8640     1.0525    -3.9326 H       
  33 H33            5.1863     0.6218    -1.6051 H       
  34 H34            0.7609    -2.3455     2.0518 H       
  35 H35            1.8932    -4.7536    -2.1073 H       
  36 H36            0.8414    -4.8033     2.0353 H       
  37 H37            1.1908    -8.0286     1.0472 H       
  38 H38            1.8405    -6.6386     1.9495 H       
  39 H39            0.1155    -6.6889     1.5133 H       
@<TRIPOS>BOND
   1    1    2 2
   2    1    6 1
   3    1   25 1
   4    2    3 1
   5    2   26 1
   6    3    4 2
   7    3    7 1
   8    4    5 1
   9    4   27 1
  10    5    6 am
  11    5    8 1
  12    6    9 2
  13    7   16 ar
  14    7   17 ar
  15    8   10 1
  16    8   28 1
  17    8   29 1
  18   10   11 ar
  19   10   15 ar
  20   11   12 ar
  21   11   30 1
  22   12   13 ar
  23   12   31 1
  24   13   14 ar
  25   13   21 1
  26   14   15 ar
  27   14   32 1
  28   15   33 1
  29   16   20 ar
  30   16   34 1
  31   17   18 ar
  32   17   22 1
  33   18   19 ar
  34   18   35 1
  35   19   20 ar
  36   19   23 1
  37   20   36 1
  38   23   24 1
  39   24   37 1
  40   24   38 1
  41   24   39 1

#	End of record

