#	Name: ASD01911738
#	Creating user name:	WinNT
#	Creation time:	15. 06. 2019 19:58

#	Modifying user name:	WinNT
#	Modification time:	15. 06. 2019 19:58

#	Program:	/corina/corina34_cracker 3.40 0067  02.08.2006

@<TRIPOS>MOLECULE
ASD01911738
  33   35    0    0    0
SMALL
NO_CHARGES


@<TRIPOS>ATOM
   1 N1            -0.0171     1.3436     0.0001 N.am    
   2 C2             0.0021    -0.0041     0.0020 C.2     
   3 C3            -1.2514    -0.7547     0.1206 C.2     
   4 C4            -1.3870    -2.1141     0.0311 C.2     
   5 S5            -2.8479    -0.0665     0.4111 S.3     
   6 C6            -3.5486    -1.6819     0.3767 C.2     
   7 N7            -2.6022    -2.5629     0.1689 N.2     
   8 C8            -4.9370    -1.9853     0.5531 C.1     
   9 C9            -6.0752    -2.2341     0.6977 C.1     
  10 C10           -7.4635    -2.5375     0.8741 C.ar    
  11 C11           -7.8950    -3.8655     0.8247 C.ar    
  12 O12            1.0601    -0.5977    -0.0947 O.2     
  13 C13            1.1685     2.2197    -0.0146 C.3     
  14 C14           -9.2399    -4.1415     0.9971 C.ar    
  15 C15          -10.1116    -3.0834     1.2133 C.ar    
  16 C16           -9.6169    -1.7912     1.2504 C.ar    
  17 N17           -8.3323    -1.5535     1.0891 N.ar    
  18 C18           -1.2238     2.1834     0.0060 C.3     
  19 C19           -0.7585     3.6544    -0.0271 C.3     
  20 C20            0.6686     3.5532    -0.6241 C.3     
  21 H21           -0.5455    -2.7686    -0.1419 H       
  22 H22           -7.1892    -4.6650     0.6541 H       
  23 H23            1.5345     2.3798     0.9996 H       
  24 H24            1.9516     1.7878    -0.6377 H       
  25 H25           -9.6033    -5.1580     0.9638 H       
  26 H26          -11.1670    -3.2667     1.3510 H       
  27 H27          -10.2938    -0.9667     1.4185 H       
  28 H28           -1.8306     1.9666    -0.8732 H       
  29 H29           -1.8006     1.9973     0.9120 H       
  30 H30           -1.4036     4.2485    -0.6744 H       
  31 H31           -0.7297     4.0725     0.9791 H       
  32 H32            1.2889     4.3878    -0.2972 H       
  33 H33            0.6339     3.4968    -1.7121 H       
@<TRIPOS>BOND
   1    1    2 am
   2    1   18 1
   3    1   13 1
   4    2    3 1
   5    2   12 2
   6    3    4 2
   7    3    5 1
   8    4    7 1
   9    4   21 1
  10    5    6 1
  11    6    7 2
  12    6    8 1
  13    8    9 3
  14    9   10 1
  15   10   11 ar
  16   10   17 ar
  17   11   14 ar
  18   11   22 1
  19   13   20 1
  20   13   23 1
  21   13   24 1
  22   14   15 ar
  23   14   25 1
  24   15   16 ar
  25   15   26 1
  26   16   17 ar
  27   16   27 1
  28   18   19 1
  29   18   28 1
  30   18   29 1
  31   19   20 1
  32   19   30 1
  33   19   31 1
  34   20   32 1
  35   20   33 1

#	End of record

