#	Name: ASD01917016
#	Creating user name:	WinNT
#	Creation time:	15. 06. 2019 20:08

#	Modifying user name:	WinNT
#	Modification time:	15. 06. 2019 20:08

#	Program:	/corina/corina34_cracker 3.40 0067  02.08.2006

@<TRIPOS>MOLECULE
ASD01917016
  28   30    0    0    0
SMALL
NO_CHARGES


@<TRIPOS>ATOM
   1 C1            -0.0168     1.3907     0.0097 C.ar    
   2 C2             0.0021    -0.0041     0.0020 C.ar    
   3 C3             1.2528     2.1511     0.0016 C.2     
   4 N4             2.4634     1.6350    -0.0131 N.2     
   5 C5             3.3721     2.6163    -0.0172 C.2     
   6 N6             2.7494     3.7753    -0.0050 N.2     
   7 N7             1.3726     3.4992     0.0023 N.pl3   
   8 C8             4.8442     2.4284    -0.0322 C.ar    
   9 C9             5.6903     3.5353    -0.0350 C.ar    
  10 C10            5.3851     1.1444    -0.0376 C.ar    
  11 C11            6.7548     0.9754    -0.0510 C.ar    
  12 C12            7.5902     2.0778    -0.0587 C.ar    
  13 C13            7.0586     3.3548    -0.0485 C.ar    
  14 C14           -1.1851    -0.7073     0.0091 C.ar    
  15 C15           -2.3924    -0.0319     0.0238 C.ar    
  16 C16           -2.4177     1.3513     0.0310 C.ar    
  17 C17           -1.2375     2.0659     0.0191 C.ar    
  18 H18            0.9439    -0.5324    -0.0098 H       
  19 H19            0.6503     4.1465     0.0113 H       
  20 H20            5.2763     4.5328    -0.0271 H       
  21 H21            4.7337     0.2830    -0.0309 H       
  22 H22            7.1752    -0.0194    -0.0552 H       
  23 H23            8.6615     1.9411    -0.0685 H       
  24 H24            7.7154     4.2121    -0.0549 H       
  25 H25           -1.1718    -1.7872     0.0028 H       
  26 H26           -3.3189    -0.5868     0.0293 H       
  27 H27           -3.3634     1.8729     0.0421 H       
  28 H28           -1.2586     3.1457     0.0251 H       
@<TRIPOS>BOND
   1    1    2 ar
   2    1    3 1
   3    1   17 ar
   4    2   14 ar
   5    2   18 1
   6    3    4 2
   7    3    7 1
   8    4    5 1
   9    5    6 2
  10    5    8 1
  11    6    7 1
  12    7   19 1
  13    8    9 ar
  14    8   10 ar
  15    9   13 ar
  16    9   20 1
  17   10   11 ar
  18   10   21 1
  19   11   12 ar
  20   11   22 1
  21   12   13 ar
  22   12   23 1
  23   13   24 1
  24   14   15 ar
  25   14   25 1
  26   15   16 ar
  27   15   26 1
  28   16   17 ar
  29   16   27 1
  30   17   28 1

#	End of record

