#	Name: ASD01913060
#	Creating user name:	WinNT
#	Creation time:	15. 06. 2019 20:00

#	Modifying user name:	WinNT
#	Modification time:	15. 06. 2019 20:00

#	Program:	/corina/corina34_cracker 3.40 0067  02.08.2006

@<TRIPOS>MOLECULE
ASD01913060
  30   30    0    0    0
SMALL
NO_CHARGES


@<TRIPOS>ATOM
   1 C1            -0.0187     1.5258     0.0104 C.3     
   2 C2             0.0021    -0.0041     0.0020 C.3     
   3 C3            -1.4117    -0.5257     0.0127 C.2     
   4 C4            -1.6670    -2.0109     0.0072 C.3     
   5 O5            -2.3401     0.2465     0.0257 O.2     
   6 C6            -3.1523    -2.2654     0.0200 C.2     
   7 C7            -3.6632    -3.6480     0.0174 C.ar    
   8 O8            -3.9269    -1.3330     0.0324 O.2     
   9 N9            -2.8086    -4.6662     0.0038 N.ar    
  10 C10           -3.2220    -5.9131     0.0011 C.ar    
  11 C11           -4.5788    -6.2150     0.0119 C.ar    
  12 C12           -5.5060    -5.1805     0.0264 C.ar    
  13 C13           -5.0405    -3.8769     0.0351 C.ar    
  14 C14           -2.2117    -7.0313    -0.0146 C.3     
  15 F15           -4.9916    -7.5013     0.0081 F       
  16 C16            1.4167     2.0553    -0.0004 C.3     
  17 H17           -0.5459     1.8868    -0.8726 H       
  18 H18           -0.5289     1.8773     0.9072 H       
  19 H19            0.5123    -0.3556    -0.8948 H       
  20 H20            0.5293    -0.3651     0.8851 H       
  21 H21           -1.2306    -2.4512    -0.8894 H       
  22 H22           -1.2136    -2.4608     0.8905 H       
  23 H23           -6.5657    -5.3887     0.0350 H       
  24 H24           -5.7331    -3.0483     0.0464 H       
  25 H25           -1.9583    -7.3064     1.0092 H       
  26 H26           -2.6334    -7.8948    -0.5291 H       
  27 H27           -1.3127    -6.7014    -0.5353 H       
  28 H28            1.4019     3.1452     0.0056 H       
  29 H29            1.9439     1.6943     0.8826 H       
  30 H30            1.9269     1.7038    -0.8972 H       
@<TRIPOS>BOND
   1    1    2 1
   2    1   16 1
   3    1   17 1
   4    1   18 1
   5    2    3 1
   6    2   19 1
   7    2   20 1
   8    3    4 1
   9    3    5 2
  10    4    6 1
  11    4   21 1
  12    4   22 1
  13    6    7 1
  14    6    8 2
  15    7    9 ar
  16    7   13 ar
  17    9   10 ar
  18   10   11 ar
  19   10   14 1
  20   11   12 ar
  21   11   15 1
  22   12   13 ar
  23   12   23 1
  24   13   24 1
  25   14   25 1
  26   14   26 1
  27   14   27 1
  28   16   28 1
  29   16   29 1
  30   16   30 1

#	End of record

