#	Name: ASD01910197
#	Creating user name:	WinNT
#	Creation time:	15. 06. 2019 19:55

#	Modifying user name:	WinNT
#	Modification time:	15. 06. 2019 19:55

#	Program:	/corina/corina34_cracker 3.40 0067  02.08.2006

@<TRIPOS>MOLECULE
ASD01910197
  44   47    0    0    0
SMALL
NO_CHARGES


@<TRIPOS>ATOM
   1 C1            -0.0158     1.3719    -0.0252 C.ar    
   2 C2             0.0039    -0.0097    -0.0039 C.ar    
   3 C3             1.2090    -0.6955     0.0046 C.ar    
   4 C4             2.4008     0.0103    -0.0089 C.ar    
   5 C5             2.3808     1.4201    -0.0312 C.ar    
   6 C6             1.1693     2.0917    -0.0389 C.ar    
   7 C7             3.8281    -0.3737    -0.0057 C.2     
   8 N8             4.5733     0.7461    -0.0248 N.am    
   9 C9             3.7966     1.8444    -0.0406 C.2     
  10 O10            4.1925     2.9923    -0.0599 O.2     
  11 O11            4.2565    -1.5100     0.0115 O.2     
  12 C12            5.9750     0.7660    -0.0274 C.ar    
  13 C13            6.6865    -0.4270    -0.0095 C.ar    
  14 C14            8.0691    -0.4130    -0.0116 C.ar    
  15 C15            8.7514     0.7860    -0.0314 C.ar    
  16 C16            8.0454     1.9905    -0.0500 C.ar    
  17 C17            6.6507     1.9758    -0.0536 C.ar    
  18 C18            8.7736     3.2768    -0.0708 C.2     
  19 N19           10.1214     3.2883    -0.0719 N.am    
  20 C20           10.8112     4.5025    -0.1771 C.ar    
  21 C21           10.2110     5.6816     0.2390 C.ar    
  22 C22           10.8941     6.8789     0.1347 C.ar    
  23 C23           12.1752     6.9047    -0.3843 C.ar    
  24 C24           12.7802     5.7331    -0.8013 C.ar    
  25 C25           12.1048     4.5286    -0.6948 C.ar    
  26 O26            8.1569     4.3243    -0.0870 O.2     
  27 O27           12.6985     3.3758    -1.1039 O.3     
  28 C28           14.0214     3.4801    -1.6342 C.3     
  29 H29           -0.9608     1.8946    -0.0358 H       
  30 H30           -0.9259    -0.5591     0.0066 H       
  31 H31            1.2183    -1.7753     0.0220 H       
  32 H32            1.1478     3.1713    -0.0563 H       
  33 H33            6.1579    -1.3686     0.0064 H       
  34 H34            8.6168    -1.3437     0.0028 H       
  35 H35            9.8314     0.7929    -0.0323 H       
  36 H36            6.0992     2.9042    -0.0680 H       
  37 H37           10.6135     2.4555     0.0001 H       
  38 H38            9.2100     5.6645     0.6442 H       
  39 H39           10.4258     7.7964     0.4590 H       
  40 H40           12.7048     7.8425    -0.4646 H       
  41 H41           13.7810     5.7570    -1.2065 H       
  42 H42           14.0121     4.1311    -2.5084 H       
  43 H43           14.6845     3.8983    -0.8768 H       
  44 H44           14.3767     2.4906    -1.9217 H       
@<TRIPOS>BOND
   1    1    2 ar
   2    1    6 ar
   3    1   29 1
   4    2    3 ar
   5    2   30 1
   6    3    4 ar
   7    3   31 1
   8    4    5 ar
   9    4    7 1
  10    5    6 ar
  11    5    9 1
  12    6   32 1
  13    7    8 am
  14    7   11 2
  15    8    9 am
  16    8   12 1
  17    9   10 2
  18   12   13 ar
  19   12   17 ar
  20   13   14 ar
  21   13   33 1
  22   14   15 ar
  23   14   34 1
  24   15   16 ar
  25   15   35 1
  26   16   17 ar
  27   16   18 1
  28   17   36 1
  29   18   19 am
  30   18   26 2
  31   19   20 1
  32   19   37 1
  33   20   21 ar
  34   20   25 ar
  35   21   22 ar
  36   21   38 1
  37   22   23 ar
  38   22   39 1
  39   23   24 ar
  40   23   40 1
  41   24   25 ar
  42   24   41 1
  43   25   27 1
  44   27   28 1
  45   28   42 1
  46   28   43 1
  47   28   44 1

#	End of record

