#	Name: ASD01150378
#	Creating user name:	WinNT
#	Creation time:	15. 06. 2019 19:04

#	Modifying user name:	WinNT
#	Modification time:	15. 06. 2019 19:04

#	Program:	/corina/corina34_cracker 3.40 0067  02.08.2006

@<TRIPOS>MOLECULE
ASD01150378
  52   55    0    0    0
SMALL
NO_CHARGES


@<TRIPOS>ATOM
   1 C1             2.7513     6.4755     4.1494 C.ar    
   2 C2             3.8850     6.0256     4.7975 C.ar    
   3 C3             4.7488     5.1547     4.1610 C.ar    
   4 C4             4.4792     4.7287     2.8666 C.ar    
   5 C5             3.3410     5.1783     2.2127 C.ar    
   6 C6             2.4755     6.0529     2.8544 C.ar    
   7 N7             1.3264     6.5082     2.1988 N.am    
   8 C8             0.5173     5.6085     1.6180 C.2     
   9 N9            -0.6033     5.9897     0.9725 N.am    
  10 C10           -0.9043     7.3084     0.9179 C.2     
  11 C11            0.0228     8.2510     1.5747 C.2     
  12 N12            1.0860     7.7697     2.1816 N.2     
  13 O13           -1.9035     7.7029     0.3472 O.2     
  14 C14           -1.4773     4.9969     0.3426 C.3     
  15 O15            0.8004     4.4277     1.6748 O.2     
  16 C16           -2.6550     4.7220     1.2417 C.ar    
  17 C17           -3.1936     3.4505     1.3058 C.ar    
  18 C18           -4.2740     3.1983     2.1305 C.ar    
  19 C19           -4.8154     4.2174     2.8915 C.ar    
  20 C20           -4.2761     5.4887     2.8281 C.ar    
  21 C21           -3.1931     5.7399     2.0067 C.ar    
  22 C22           -0.2331     9.6598     1.5563 C.1     
  23 N23           -0.4361    10.7775     1.5417 N.1     
  24 N24            5.3549     3.8476     2.2226 N.am    
  25 C25            5.9722     2.8773     2.9254 C.2     
  26 O26            5.8358     2.8201     4.1292 O.2     
  27 C27            6.8319     1.8634     2.2155 C.3     
  28 C28           -1.9680     5.5269    -0.9800 C.ar    
  29 C29           -3.2313     5.1943    -1.4321 C.ar    
  30 C30           -3.6814     5.6804    -2.6454 C.ar    
  31 C31           -2.8684     6.4995    -3.4063 C.ar    
  32 C32           -1.6055     6.8328    -2.9538 C.ar    
  33 C33           -1.1570     6.3502    -1.7385 C.ar    
  34 H34            2.0761     7.1528     4.6511 H       
  35 H35            4.0971     6.3555     5.8038 H       
  36 H36            5.6346     4.8051     4.6704 H       
  37 H37            3.1294     4.8488     1.2061 H       
  38 H38           -0.9208     4.0739     0.1803 H       
  39 H39           -2.7707     2.6542     0.7112 H       
  40 H40           -4.6952     2.2050     2.1800 H       
  41 H41           -5.6598     4.0205     3.5353 H       
  42 H42           -4.6993     6.2850     3.4224 H       
  43 H43           -2.7718     6.7331     1.9572 H       
  44 H44            5.5177     3.9351     1.2704 H       
  45 H45            6.8342     2.0740     1.1461 H       
  46 H46            7.8507     1.9188     2.5989 H       
  47 H47            6.4326     0.8639     2.3881 H       
  48 H48           -3.8664     4.5544    -0.8376 H       
  49 H49           -4.6681     5.4199    -2.9989 H       
  50 H50           -3.2198     6.8787    -4.3545 H       
  51 H51           -0.9702     7.4725    -3.5485 H       
  52 H52           -0.1703     6.6107    -1.3850 H       
@<TRIPOS>BOND
   1    1    2 ar
   2    1    6 ar
   3    1   34 1
   4    2    3 ar
   5    2   35 1
   6    3    4 ar
   7    3   36 1
   8    4    5 ar
   9    4   24 1
  10    5    6 ar
  11    5   37 1
  12    6    7 1
  13    7    8 am
  14    7   12 1
  15    8    9 am
  16    8   15 2
  17    9   10 am
  18    9   14 1
  19   10   11 1
  20   10   13 2
  21   11   12 2
  22   11   22 1
  23   14   16 1
  24   14   28 1
  25   14   38 1
  26   16   17 ar
  27   16   21 ar
  28   17   18 ar
  29   17   39 1
  30   18   19 ar
  31   18   40 1
  32   19   20 ar
  33   19   41 1
  34   20   21 ar
  35   20   42 1
  36   21   43 1
  37   22   23 3
  38   24   25 am
  39   24   44 1
  40   25   26 2
  41   25   27 1
  42   27   45 1
  43   27   46 1
  44   27   47 1
  45   28   29 ar
  46   28   33 ar
  47   29   30 ar
  48   29   48 1
  49   30   31 ar
  50   30   49 1
  51   31   32 ar
  52   31   50 1
  53   32   33 ar
  54   32   51 1
  55   33   52 1

#	End of record

