#	Name: ASD01883458
#	Creating user name:	WinNT
#	Creation time:	15. 06. 2019 19:46

#	Modifying user name:	WinNT
#	Modification time:	15. 06. 2019 19:46

#	Program:	/corina/corina34_cracker 3.40 0067  02.08.2006

@<TRIPOS>MOLECULE
ASD01883458
  57   60    0    0    0
SMALL
NO_CHARGES


@<TRIPOS>ATOM
   1 N1            -0.0080     1.3271     0.0354 N.am    
   2 C2            -0.3623     0.6471    -1.0708 C.2     
   3 C3            -1.5938    -0.0487    -1.1070 C.2     
   4 C4            -2.4239    -0.0108     0.0261 C.2     
   5 C5            -1.9981     0.7175     1.1524 C.2     
   6 C6            -0.8092     1.3586     1.1319 C.2     
   7 O7             0.3768     0.6309    -2.0406 O.2     
   8 C8            -1.9868    -0.7769    -2.2757 C.1     
   9 N9            -2.2985    -1.3546    -3.2029 N.1     
  10 N10           -3.6309    -0.6732     0.0341 N.pl3   
  11 C11           -4.8919     0.0702     0.1608 C.3     
  12 C12           -5.6944    -0.5155     1.3268 C.3     
  13 C13           -5.8708    -2.0207     1.1144 C.3     
  14 C14           -4.4985    -2.6976     1.0843 C.3     
  15 C15           -3.6827    -2.1362    -0.0901 C.3     
  16 C16            1.2701     2.0427     0.0594 C.3     
  17 C17            1.0645     3.4711    -0.4488 C.3     
  18 C18            2.3993     4.2185    -0.4237 C.3     
  19 C19            2.2199     5.6040    -1.0473 C.3     
  20 C20            2.8729     4.3680     1.0235 C.3     
  21 N21           -6.6662    -2.5785     2.2109 N.pl3   
  22 C22           -6.3205    -2.5348     3.5341 C.2     
  23 C23           -7.2658    -3.1355     4.2741 C.2     
  24 C24           -8.3015    -3.6020     3.3492 C.ar    
  25 C25           -7.8758    -3.2196     2.0641 C.ar    
  26 C26           -9.5096    -4.2837     3.5087 C.ar    
  27 C27          -10.2703    -4.5812     2.4135 C.ar    
  28 C28           -9.8515    -4.2115     1.1425 C.ar    
  29 C29           -8.6671    -3.5314     0.9631 C.ar    
  30 H30           -2.6200     0.7608     2.0343 H       
  31 H31           -0.4930     1.9144     2.0022 H       
  32 H32           -4.6785     1.1212     0.3555 H       
  33 H33           -5.4656    -0.0236    -0.7613 H       
  34 H34           -5.1602    -0.3399     2.2606 H       
  35 H35           -6.6729    -0.0373     1.3715 H       
  36 H36           -6.3831    -2.1964     0.1685 H       
  37 H37           -3.9756    -2.5016     2.0204 H       
  38 H38           -4.6258    -3.7726     0.9564 H       
  39 H39           -4.1593    -2.4118    -1.0309 H       
  40 H40           -2.6709    -2.5405    -0.0585 H       
  41 H41            1.6512     2.0716     1.0802 H       
  42 H42            1.9865     1.5287    -0.5814 H       
  43 H43            0.6835     3.4422    -1.4696 H       
  44 H44            0.3482     3.9852     0.1920 H       
  45 H45            3.1407     3.6573    -0.9924 H       
  46 H46            1.4785     6.1652    -0.4785 H       
  47 H47            3.1708     6.1365    -1.0294 H       
  48 H48            1.8825     5.4975    -2.0783 H       
  49 H49            3.0008     3.3809     1.4678 H       
  50 H50            3.8239     4.9004     1.0414 H       
  51 H51            2.1315     4.9292     1.5923 H       
  52 H52           -5.4205    -2.0838     3.9252 H       
  53 H53           -7.2630    -3.2531     5.3477 H       
  54 H54           -9.8414    -4.5751     4.4943 H       
  55 H55          -11.2046    -5.1085     2.5374 H       
  56 H56          -10.4636    -4.4541     0.2864 H       
  57 H57           -8.3502    -3.2479    -0.0296 H       
@<TRIPOS>BOND
   1    1    2 am
   2    1   16 1
   3    1    6 1
   4    2    3 1
   5    2    7 2
   6    3    4 2
   7    3    8 1
   8    4    5 1
   9    4   10 1
  10    5    6 2
  11    5   30 1
  12    6   31 1
  13    8    9 3
  14   10   11 1
  15   10   15 1
  16   11   12 1
  17   11   32 1
  18   11   33 1
  19   12   13 1
  20   12   34 1
  21   12   35 1
  22   13   14 1
  23   13   21 1
  24   13   36 1
  25   14   15 1
  26   14   37 1
  27   14   38 1
  28   15   39 1
  29   15   40 1
  30   16   17 1
  31   16   41 1
  32   16   42 1
  33   17   18 1
  34   17   43 1
  35   17   44 1
  36   18   19 1
  37   18   20 1
  38   18   45 1
  39   19   46 1
  40   19   47 1
  41   19   48 1
  42   20   49 1
  43   20   50 1
  44   20   51 1
  45   21   22 1
  46   21   25 1
  47   22   23 2
  48   22   52 1
  49   23   24 1
  50   23   53 1
  51   24   25 ar
  52   24   26 ar
  53   25   29 ar
  54   26   27 ar
  55   26   54 1
  56   27   28 ar
  57   27   55 1
  58   28   29 ar
  59   28   56 1
  60   29   57 1

#	End of record

