#	Name: ASD01478052
#	Creating user name:	WinNT
#	Creation time:	15. 06. 2019 19:21

#	Modifying user name:	WinNT
#	Modification time:	15. 06. 2019 19:21

#	Program:	/corina/corina34_cracker 3.40 0067  02.08.2006

@<TRIPOS>MOLECULE
ASD01478052
  56   58    0    0    0
SMALL
NO_CHARGES


@<TRIPOS>ATOM
   1 C1            -0.2603     2.7041    -0.3737 C.3     
   2 C2             0.6664     1.5101    -0.5793 C.3     
   3 O3             0.3679     0.8747    -1.8232 O.3     
   4 C4             0.8641     1.5908    -2.9583 C.3     
   5 O5             0.0557     2.7488    -3.1804 O.3     
   6 C6             0.7209     3.9844    -2.9394 C.3     
   7 C7             1.5183     3.8999    -1.6346 C.3     
   8 C8             0.5455     4.0067    -0.4505 C.3     
   9 O9            -0.8839     2.6061     0.9083 O.3     
  10 Si10          -2.5024     2.4141     0.8458 Si      
  11 C11           -3.2378     2.7775     2.5240 C.ar    
  12 C12           -2.8840     3.9311     3.1986 C.ar    
  13 C13           -3.4282     4.2000     4.4405 C.ar    
  14 C14           -4.3266     3.3157     5.0077 C.ar    
  15 C15           -4.6811     2.1626     4.3327 C.ar    
  16 C16           -4.1402     1.8958     3.0889 C.ar    
  17 C17           -3.2206     3.5890    -0.4165 C.ar    
  18 C18           -3.4878     4.8996    -0.0674 C.ar    
  19 C19           -4.0193     5.7690    -1.0015 C.ar    
  20 C20           -4.2832     5.3279    -2.2848 C.ar    
  21 C21           -4.0151     4.0176    -2.6341 C.ar    
  22 C22           -3.4796     3.1493    -1.7012 C.ar    
  23 C23           -2.9013     0.6604     0.3595 C.3     
  24 C24           -2.6021    -0.2748     1.5329 C.3     
  25 C25           -4.3826     0.5579    -0.0095 C.3     
  26 C26           -2.0468     0.2580    -0.8441 C.3     
  27 H27           -1.0265     2.7057    -1.1490 H       
  28 H28            1.7014     1.8518    -0.5861 H       
  29 H29            0.5261     0.7983     0.2341 H       
  30 H30            1.8940     1.8964    -2.7736 H       
  31 H31            0.8278     0.9480    -3.8379 H       
  32 H32            1.3994     4.1977    -3.7654 H       
  33 H33           -0.0163     4.7836    -2.8622 H       
  34 H34            2.0450     2.9467    -1.5897 H       
  35 H35            2.2366     4.7186    -1.5920 H       
  36 H36           -0.1298     4.8484    -0.6041 H       
  37 H37            1.1055     4.1477     0.4739 H       
  38 H38           -2.1821     4.6220     2.7555 H       
  39 H39           -3.1512     5.1009     4.9678 H       
  40 H40           -4.7512     3.5254     5.9783 H       
  41 H41           -5.3828     1.4715     4.7760 H       
  42 H42           -4.4200     0.9967     2.5599 H       
  43 H43           -3.2816     5.2441     0.9351 H       
  44 H44           -4.2287     6.7927    -0.7286 H       
  45 H45           -4.6991     6.0070    -3.0143 H       
  46 H46           -4.2216     3.6729    -3.6365 H       
  47 H47           -3.2667     2.1265    -1.9751 H       
  48 H48           -3.1188     0.0830     2.4235 H       
  49 H49           -2.9463    -1.2807     1.2926 H       
  50 H50           -1.5282    -0.2928     1.7184 H       
  51 H51           -4.5750     1.1460    -0.9068 H       
  52 H52           -4.6391    -0.4848    -0.1965 H       
  53 H53           -4.9889     0.9396     0.8120 H       
  54 H54           -1.0194     0.0909    -0.5208 H       
  55 H55           -2.4437    -0.6582    -1.2813 H       
  56 H56           -2.0687     1.0546    -1.5878 H       
@<TRIPOS>BOND
   1    1    2 1
   2    1    8 1
   3    1    9 1
   4    1   27 1
   5    2    3 1
   6    2   28 1
   7    2   29 1
   8    3    4 1
   9    4    5 1
  10    4   30 1
  11    4   31 1
  12    5    6 1
  13    6    7 1
  14    6   32 1
  15    6   33 1
  16    7    8 1
  17    7   34 1
  18    7   35 1
  19    8   36 1
  20    8   37 1
  21    9   10 1
  22   10   11 1
  23   10   17 1
  24   10   23 1
  25   11   12 ar
  26   11   16 ar
  27   12   13 ar
  28   12   38 1
  29   13   14 ar
  30   13   39 1
  31   14   15 ar
  32   14   40 1
  33   15   16 ar
  34   15   41 1
  35   16   42 1
  36   17   18 ar
  37   17   22 ar
  38   18   19 ar
  39   18   43 1
  40   19   20 ar
  41   19   44 1
  42   20   21 ar
  43   20   45 1
  44   21   22 ar
  45   21   46 1
  46   22   47 1
  47   23   24 1
  48   23   26 1
  49   23   25 1
  50   24   48 1
  51   24   49 1
  52   24   50 1
  53   25   51 1
  54   25   52 1
  55   25   53 1
  56   26   54 1
  57   26   55 1
  58   26   56 1

#	End of record

