#	Name: ASD01810290
#	Creating user name:	WinNT
#	Creation time:	15. 06. 2019 19:24

#	Modifying user name:	WinNT
#	Modification time:	15. 06. 2019 19:24

#	Program:	/corina/corina34_cracker 3.40 0067  02.08.2006

@<TRIPOS>MOLECULE
ASD01810290
  47   50    0    0    0
SMALL
NO_CHARGES


@<TRIPOS>ATOM
   1 C1             1.1597     2.2502    -0.5159 C.ar    
   2 C2             0.7828     0.9161    -0.5004 C.ar    
   3 C3             1.7243    -0.0813    -0.3477 C.ar    
   4 C4             3.0713     0.2477    -0.2072 C.ar    
   5 C5             3.4520     1.6004    -0.2236 C.ar    
   6 C6             2.4881     2.5999    -0.3786 C.ar    
   7 N7             4.0212    -0.7401    -0.0534 N.pl3   
   8 C8             5.3264    -0.4758     0.0859 C.2     
   9 C9             5.8197     0.8134     0.0854 C.2     
  10 C10            4.8794     1.9347    -0.0742 C.2     
  11 O11            5.2649     3.0907    -0.0812 O.2     
  12 C12            3.5837    -2.1382    -0.0416 C.3     
  13 C13            3.4399    -2.6316    -1.4583 C.ar    
  14 C14            4.5229    -2.5802    -2.3204 C.ar    
  15 C15            4.3952    -3.0323    -3.6208 C.ar    
  16 C16            3.1753    -3.5395    -4.0619 C.ar    
  17 C17            2.0897    -3.5883    -3.1893 C.ar    
  18 C18            2.2287    -3.1395    -1.8916 C.ar    
  19 C19            3.0317    -4.0258    -5.4566 C.ar    
  20 C20            7.2596     1.0623     0.2415 C.2     
  21 O21            7.7293     2.3259     0.2394 O.3     
  22 O22            8.0272     0.1288     0.3726 O.2     
  23 F23            5.7050    -2.0874    -1.8903 F       
  24 F24            2.8539     3.9003    -0.3947 F       
  25 F25            1.3402    -1.3764    -0.3338 F       
  26 C26            1.8126    -4.5359    -5.9075 C.ar    
  27 C27            1.7302    -4.9778    -7.2221 C.ar    
  28 C28            2.8526    -4.8977    -8.0344 C.ar    
  29 N29            3.9887    -4.4105    -7.5751 N.ar    
  30 C30            4.1100    -3.9751    -6.3380 C.ar    
  31 O31            0.5649    -5.4827    -7.7065 O.3     
  32 C32            0.5619    -5.9157    -9.0683 C.3     
  33 H33            0.4114     3.0190    -0.6404 H       
  34 H34           -0.2594     0.6544    -0.6087 H       
  35 H35            6.0161    -1.2986     0.2030 H       
  36 H36            4.3222    -2.7456     0.4815 H       
  37 H37            2.6235    -2.2141     0.4688 H       
  38 H38            5.2394    -2.9920    -4.2932 H       
  39 H39            1.1418    -3.9804    -3.5271 H       
  40 H40            1.3875    -3.1777    -1.2154 H       
  41 H41            8.6838     2.4397     0.3451 H       
  42 H42            0.9562    -4.5858    -5.2515 H       
  43 H43            2.7950    -5.2396    -9.0572 H       
  44 H44            5.0579    -3.5828    -6.0003 H       
  45 H45           -0.4265    -6.2957    -9.3266 H       
  46 H46            0.8093    -5.0756    -9.7172 H       
  47 H47            1.3008    -6.7063    -9.1998 H       
@<TRIPOS>BOND
   1    1    2 ar
   2    1    6 ar
   3    1   33 1
   4    2    3 ar
   5    2   34 1
   6    3    4 ar
   7    3   25 1
   8    4    5 ar
   9    4    7 1
  10    5    6 ar
  11    5   10 1
  12    6   24 1
  13    7    8 1
  14    7   12 1
  15    8    9 2
  16    8   35 1
  17    9   10 1
  18    9   20 1
  19   10   11 2
  20   12   13 1
  21   12   36 1
  22   12   37 1
  23   13   14 ar
  24   13   18 ar
  25   14   15 ar
  26   14   23 1
  27   15   16 ar
  28   15   38 1
  29   16   17 ar
  30   16   19 1
  31   17   18 ar
  32   17   39 1
  33   18   40 1
  34   19   26 ar
  35   19   30 ar
  36   20   21 1
  37   20   22 2
  38   21   41 1
  39   26   27 ar
  40   26   42 1
  41   27   28 ar
  42   27   31 1
  43   28   29 ar
  44   28   43 1
  45   29   30 ar
  46   30   44 1
  47   31   32 1
  48   32   45 1
  49   32   46 1
  50   32   47 1

#	End of record

