#	Name: ASD03330884
#	Creating user name:	WinNT
#	Creation time:	15. 06. 2019 20:38

#	Modifying user name:	WinNT
#	Modification time:	15. 06. 2019 20:38

#	Program:	/corina/corina34_cracker 3.40 0067  02.08.2006

@<TRIPOS>MOLECULE
ASD03330884
  63   65    0    0    0
SMALL
NO_CHARGES


@<TRIPOS>ATOM
   1 N1             0.0596     1.1546    -0.7667 N.pl3   
   2 C2             0.0642    -0.1788    -0.4994 C.2     
   3 C3             1.2854    -1.0114    -0.2087 C.3     
   4 N4             2.1194    -0.3144     0.7829 N.3     
   5 C5             3.0709     0.5896     0.1340 C.3     
   6 C6             2.4731     1.1928    -1.1339 C.3     
   7 C7             1.2383     2.0257    -0.7794 C.3     
   8 C8            -1.2336     1.5193    -1.0045 C.2     
   9 N9            -1.9984     0.4608    -0.8721 N.2     
  10 C10           -1.2279    -0.6039    -0.5576 C.2     
  11 C11           -1.7014    -1.9790    -0.3207 C.2     
  12 O12           -0.9063    -2.8567    -0.0438 O.2     
  13 N13           -3.0155    -2.2642    -0.4110 N.am    
  14 C14           -1.6963     2.8799    -1.3528 C.ar    
  15 C15           -2.5967     3.0665    -2.4052 C.ar    
  16 C16           -3.0261     4.3400    -2.7259 C.ar    
  17 C17           -2.5654     5.4303    -2.0069 C.ar    
  18 C18           -1.6708     5.2505    -0.9611 C.ar    
  19 C19           -1.2399     3.9815    -0.6281 C.ar    
  20 F20           -1.2246     6.3186    -0.2644 F       
  21 F21           -2.9880     6.6735    -2.3249 F       
  22 F22           -3.0461     2.0037    -3.1079 F       
  23 C23            2.8134    -1.2725     1.6537 C.3     
  24 C24           -4.7916    -3.8446    -0.8977 C.2     
  25 C25           -3.4862    -3.6314    -0.1756 C.3     
  26 C26           -3.6921    -3.8486     1.3249 C.3     
  27 C27           -4.7883    -2.9087     1.8306 C.3     
  28 O28           -5.4266    -2.8915    -1.2968 O.2     
  29 C29           -4.1073    -5.2993     1.5780 C.3     
  30 C30           -2.3864    -3.5550     2.0665 C.3     
  31 N31           -5.2535    -5.0945    -1.1001 N.am    
  32 C32           -6.5603    -5.2995    -1.7298 C.3     
  33 C33           -6.8431    -6.7990    -1.8411 C.3     
  34 F34           -8.0910    -6.9948    -2.4425 F       
  35 H35            0.9802    -1.9797     0.1880 H       
  36 H36            1.8549    -1.1558    -1.1268 H       
  37 H37            3.3303     1.3921     0.8245 H       
  38 H38            3.9729     0.0348    -0.1242 H       
  39 H39            3.2141     1.8305    -1.6160 H       
  40 H40            2.1867     0.3923    -1.8159 H       
  41 H41            1.1029     2.8113    -1.5229 H       
  42 H42            1.3711     2.4735     0.2054 H       
  43 H43           -3.6497    -1.5642    -0.6319 H       
  44 H44           -3.7219     4.4855    -3.5390 H       
  45 H45           -0.5472     3.8423     0.1887 H       
  46 H46            3.3985    -1.9605     1.0434 H       
  47 H47            3.4763    -0.7339     2.3309 H       
  48 H48            2.0805    -1.8341     2.2330 H       
  49 H49           -2.7457    -4.3397    -0.5470 H       
  50 H50           -5.7185    -3.1179     1.3022 H       
  51 H51           -4.9350    -3.0635     2.8996 H       
  52 H52           -4.4925    -1.8752     1.6503 H       
  53 H53           -3.3163    -5.9681     1.2385 H       
  54 H54           -4.2760    -5.4481     2.6445 H       
  55 H55           -5.0252    -5.5151     1.0313 H       
  56 H56           -2.0907    -2.5215     1.8862 H       
  57 H57           -2.5331    -3.7097     3.1355 H       
  58 H58           -1.6054    -4.2246     1.7063 H       
  59 H59           -4.7207    -5.8583    -0.8287 H       
  60 H60           -7.3337    -4.8278    -1.1237 H       
  61 H61           -6.5576    -4.8554    -2.7253 H       
  62 H62           -6.0697    -7.2706    -2.4473 H       
  63 H63           -6.8459    -7.2431    -0.8457 H       
@<TRIPOS>BOND
   1    1    2 1
   2    1    7 1
   3    1    8 1
   4    2    3 1
   5    2   10 2
   6    3    4 1
   7    3   35 1
   8    3   36 1
   9    4    5 1
  10    4   23 1
  11    5    6 1
  12    5   37 1
  13    5   38 1
  14    6    7 1
  15    6   39 1
  16    6   40 1
  17    7   41 1
  18    7   42 1
  19    8    9 2
  20    8   14 1
  21    9   10 1
  22   10   11 1
  23   11   12 2
  24   11   13 am
  25   13   25 1
  26   13   43 1
  27   14   15 ar
  28   14   19 ar
  29   15   16 ar
  30   15   22 1
  31   16   17 ar
  32   16   44 1
  33   17   18 ar
  34   17   21 1
  35   18   19 ar
  36   18   20 1
  37   19   45 1
  38   23   46 1
  39   23   47 1
  40   23   48 1
  41   24   28 2
  42   24   31 am
  43   24   25 1
  44   25   26 1
  45   25   49 1
  46   26   27 1
  47   26   29 1
  48   26   30 1
  49   27   50 1
  50   27   51 1
  51   27   52 1
  52   29   53 1
  53   29   54 1
  54   29   55 1
  55   30   56 1
  56   30   57 1
  57   30   58 1
  58   31   32 1
  59   31   59 1
  60   32   33 1
  61   32   60 1
  62   32   61 1
  63   33   34 1
  64   33   62 1
  65   33   63 1

#	End of record

