#	Name: ASD01940380
#	Creating user name:	WinNT
#	Creation time:	15. 06. 2019 20:12

#	Modifying user name:	WinNT
#	Modification time:	15. 06. 2019 20:12

#	Program:	/corina/corina34_cracker 3.40 0067  02.08.2006

@<TRIPOS>MOLECULE
ASD01940380
  50   53    0    0    0
SMALL
NO_CHARGES


@<TRIPOS>ATOM
   1 N1             1.2157     2.1122    -2.3821 N.pl3   
   2 N2             1.5597     0.8998    -2.9915 N.2     
   3 C3             2.3420     0.2191    -2.2048 C.2     
   4 C4             2.5517     0.9661    -1.0215 C.ar    
   5 C5             3.2917     0.7330     0.1516 C.ar    
   6 C6             3.2924     1.6996     1.1633 C.ar    
   7 C7             2.5598     2.8870     1.0019 C.ar    
   8 C8             1.8438     3.1122    -0.1324 C.ar    
   9 C9             1.8264     2.1634    -1.1584 C.ar    
  10 C10            4.0608     1.4718     2.3974 C.2     
  11 O11            4.7752     0.4922     2.4969 O.2     
  12 N12            3.9732     2.3483     3.4174 N.am    
  13 O13            4.7126     2.1291     4.6049 O.3     
  14 C14            4.5245     3.1362     5.6010 C.3     
  15 O15            5.4550     3.1156     9.1529 O.3     
  16 C16            5.2887     1.7243     8.8498 C.3     
  17 O17            4.8839     1.5946     7.4766 O.3     
  18 C18            5.3664     2.7985     6.8331 C.3     
  19 C19            5.1650     3.8541     7.9488 C.3     
  20 C20            6.6128     0.9891     9.0669 C.3     
  21 C21            4.2159     1.1244     9.7608 C.3     
  22 N22            4.0111    -0.4399     0.3038 N.pl3   
  23 C23            3.4436    -1.5259     0.9787 C.ar    
  24 C24            4.1157    -2.7430     1.0308 C.ar    
  25 C25            3.5516    -3.8135     1.6991 C.ar    
  26 C26            2.3204    -3.6746     2.3154 C.ar    
  27 C27            1.6505    -2.4659     2.2644 C.ar    
  28 C28            2.2112    -1.3900     1.6029 C.ar    
  29 I29            1.4690    -5.2995     3.3273 I       
  30 F30            5.3175    -2.8785     0.4287 F       
  31 H31            0.6464     2.7990    -2.7629 H       
  32 H32            2.7607    -0.7531    -2.4191 H       
  33 H33            2.5647     3.6289     1.7868 H       
  34 H34            1.2850     4.0300    -0.2409 H       
  35 H35            3.4035     3.1294     3.3380 H       
  36 H36            4.8338     4.1028     5.2034 H       
  37 H37            3.4718     3.1784     5.8808 H       
  38 H38            6.4201     2.7049     6.5701 H       
  39 H39            4.1364     4.2149     7.9566 H       
  40 H40            5.8637     4.6818     7.8268 H       
  41 H41            6.9100     1.0767    10.1120 H       
  42 H42            6.4902    -0.0634     8.8111 H       
  43 H43            7.3816     1.4300     8.4324 H       
  44 H44            3.2780     1.6617     9.6203 H       
  45 H45            4.0733     0.0731     9.5108 H       
  46 H46            4.5320     1.2110    10.8003 H       
  47 H47            4.9086    -0.5088    -0.0575 H       
  48 H48            4.0720    -4.7590     1.7401 H       
  49 H49            0.6896    -2.3613     2.7463 H       
  50 H50            1.6889    -0.4454     1.5678 H       
@<TRIPOS>BOND
   1    1    2 1
   2    1    9 1
   3    1   31 1
   4    2    3 2
   5    3    4 1
   6    3   32 1
   7    4    5 ar
   8    4    9 ar
   9    5    6 ar
  10    5   22 1
  11    6    7 ar
  12    6   10 1
  13    7    8 ar
  14    7   33 1
  15    8    9 ar
  16    8   34 1
  17   10   11 2
  18   10   12 am
  19   12   13 1
  20   12   35 1
  21   13   14 1
  22   14   18 1
  23   14   36 1
  24   14   37 1
  25   15   16 1
  26   15   19 1
  27   16   17 1
  28   16   20 1
  29   16   21 1
  30   17   18 1
  31   18   19 1
  32   18   38 1
  33   19   39 1
  34   19   40 1
  35   20   41 1
  36   20   42 1
  37   20   43 1
  38   21   44 1
  39   21   45 1
  40   21   46 1
  41   22   23 1
  42   22   47 1
  43   23   24 ar
  44   23   28 ar
  45   24   25 ar
  46   24   30 1
  47   25   26 ar
  48   25   48 1
  49   26   27 ar
  50   26   29 1
  51   27   28 ar
  52   27   49 1
  53   28   50 1

#	End of record

