#	Name: ASD01917130
#	Creating user name:	WinNT
#	Creation time:	15. 06. 2019 20:08

#	Modifying user name:	WinNT
#	Modification time:	15. 06. 2019 20:08

#	Program:	/corina/corina34_cracker 3.40 0067  02.08.2006

@<TRIPOS>MOLECULE
ASD01917130
  62   65    0    0    0
SMALL
NO_CHARGES


@<TRIPOS>ATOM
   1 N1             0.5385     2.5376    -0.0629 N.am    
   2 C2             0.3130     1.0854    -0.0560 C.3     
   3 C3             1.0527     0.4690    -1.2498 C.3     
   4 N4             2.4338     0.9713    -1.2568 N.am    
   5 C5             2.6592     2.4236    -1.2637 C.3     
   6 C6             1.9196     3.0400    -0.0698 C.3     
   7 C7            -0.5027     3.3934    -0.0683 C.2     
   8 O8            -1.6403     2.9662    -0.0676 O.2     
   9 O9            -0.2824     4.7216    -0.0746 O.3     
  10 C10            3.4750     0.1155    -1.2565 C.2     
  11 O11            3.2765    -1.0809    -1.2504 O.2     
  12 C12            4.8858     0.6453    -1.2637 C.3     
  13 N13            5.8285    -0.4761    -1.2618 N.pl3   
  14 N14            6.3382    -1.1481    -2.3845 N.2     
  15 C15            7.1468    -2.0839    -1.9360 C.2     
  16 N16            7.1705    -2.0338    -0.5995 N.2     
  17 C17            6.3849    -1.0654    -0.1778 C.2     
  18 C18            6.1492    -0.6891     1.2335 C.ar    
  19 C19            5.0134     0.0422     1.5826 C.ar    
  20 C20            4.7983     0.3905     2.8996 C.ar    
  21 C21            5.7080     0.0154     3.8755 C.ar    
  22 C22            6.8379    -0.7107     3.5338 C.ar    
  23 C23            7.0590    -1.0693     2.2206 C.ar    
  24 F24            5.4928     0.3590     5.1642 F       
  25 C25            7.9087    -3.0406    -2.7766 C.ar    
  26 C26            8.7361    -3.9898    -2.1799 C.ar    
  27 C27            9.4423    -4.8777    -2.9652 C.ar    
  28 C28            9.3300    -4.8262    -4.3452 C.ar    
  29 C29            8.5085    -3.8839    -4.9426 C.ar    
  30 C30            7.7943    -2.9960    -4.1646 C.ar    
  31 F31           10.0239    -5.6968    -5.1104 F       
  32 C32           -1.4509     5.5836    -0.0802 C.3     
  33 C33           -2.2910     5.3121     1.1694 C.3     
  34 C34           -1.0049     7.0471    -0.0869 C.3     
  35 C35           -2.2880     5.2998    -1.3291 C.3     
  36 H36            0.6967     0.6600     0.8713 H       
  37 H37           -0.7541     0.8804    -0.1414 H       
  38 H38            1.0588    -0.6169    -1.1553 H       
  39 H39            0.5546     0.7552    -2.1762 H       
  40 H40            3.7264     2.6285    -1.1783 H       
  41 H41            2.2755     2.8489    -2.1910 H       
  42 H42            1.9134     4.1259    -0.1644 H       
  43 H43            2.4176     2.7537     0.8565 H       
  44 H44            5.0422     1.2500    -2.1569 H       
  45 H45            5.0483     1.2581    -0.3770 H       
  46 H46            4.3041     0.3354     0.8228 H       
  47 H47            3.9197     0.9569     3.1708 H       
  48 H48            7.5440    -1.0004     4.2980 H       
  49 H49            7.9372    -1.6396     1.9560 H       
  50 H50            8.8247    -4.0303    -1.1043 H       
  51 H51           10.0838    -5.6138    -2.5035 H       
  52 H52            8.4241    -3.8469    -6.0187 H       
  53 H53            7.1507    -2.2647    -4.6309 H       
  54 H54           -1.6946     5.5143     2.0591 H       
  55 H55           -3.1681     5.9592     1.1651 H       
  56 H56           -2.6087     4.2694     1.1741 H       
  57 H57           -0.4064     7.2406    -0.9771 H       
  58 H58           -1.8821     7.6942    -0.0911 H       
  59 H59           -0.4086     7.2493     0.8029 H       
  60 H60           -2.6057     4.2572    -1.3243 H       
  61 H61           -3.1651     5.9469    -1.3333 H       
  62 H62           -1.6895     5.4932    -2.2193 H       
@<TRIPOS>BOND
   1    1    2 1
   2    1    6 1
   3    1    7 am
   4    2    3 1
   5    2   36 1
   6    2   37 1
   7    3    4 1
   8    3   38 1
   9    3   39 1
  10    4    5 1
  11    4   10 am
  12    5    6 1
  13    5   40 1
  14    5   41 1
  15    6   42 1
  16    6   43 1
  17    7    8 2
  18    7    9 1
  19    9   32 1
  20   10   11 2
  21   10   12 1
  22   12   13 1
  23   12   44 1
  24   12   45 1
  25   13   14 1
  26   13   17 1
  27   14   15 2
  28   15   16 1
  29   15   25 1
  30   16   17 2
  31   17   18 1
  32   18   19 ar
  33   18   23 ar
  34   19   20 ar
  35   19   46 1
  36   20   21 ar
  37   20   47 1
  38   21   22 ar
  39   21   24 1
  40   22   23 ar
  41   22   48 1
  42   23   49 1
  43   25   26 ar
  44   25   30 ar
  45   26   27 ar
  46   26   50 1
  47   27   28 ar
  48   27   51 1
  49   28   29 ar
  50   28   31 1
  51   29   30 ar
  52   29   52 1
  53   30   53 1
  54   32   33 1
  55   32   35 1
  56   32   34 1
  57   33   54 1
  58   33   55 1
  59   33   56 1
  60   34   57 1
  61   34   58 1
  62   34   59 1
  63   35   60 1
  64   35   61 1
  65   35   62 1

#	End of record

