#	Name: ASD07480052
#	Creating user name:	WinNT
#	Creation time:	15. 06. 2019 21:11

#	Modifying user name:	WinNT
#	Modification time:	15. 06. 2019 21:11

#	Program:	/corina/corina34_cracker 3.40 0067  02.08.2006

@<TRIPOS>MOLECULE
ASD07480052
  59   62    0    0    0
SMALL
NO_CHARGES


@<TRIPOS>ATOM
   1 C1            -0.0100     1.4690     0.2913 C.2     
   2 N2            -1.1844     2.1261     0.3658 N.am    
   3 O3             1.0337     2.0915     0.2557 O.2     
   4 Cl4            5.8799    -2.5172    -0.0643 Cl      
   5 C5             2.9216    -3.0804     0.0606 C.2     
   6 N6             1.5839    -3.2341     0.1191 N.am    
   7 O7             3.4059    -1.9651     0.0612 O.2     
   8 Cl8            6.5025    -7.8770    -0.2024 Cl      
   9 C9             5.4630    -6.4888    -0.1259 C.ar    
  10 N10            3.9074    -8.9124    -0.9655 N.ar    
  11 O11           -3.3772     3.6189    -0.6580 O.3     
  12 C12            6.0081    -5.2187    -0.1254 C.ar    
  13 N13           -0.6057    -2.1248     0.2430 N.pl3   
  14 C14            5.1872    -4.1090    -0.0651 C.ar    
  15 N15           -1.0476    -0.7966     0.2912 N.2     
  16 C16            3.7991    -4.2665    -0.0043 C.ar    
  17 C17            3.2455    -5.5465    -0.0047 C.ar    
  18 C18            4.0777    -6.6580    -0.0708 C.ar    
  19 C19            3.4957    -8.0223    -0.0721 C.ar    
  20 C20            3.4158   -10.1345    -1.0002 C.ar    
  21 C21            2.4463   -10.5353    -0.1000 C.ar    
  22 C22            1.9868    -9.6352     0.8513 C.ar    
  23 C23            2.5205    -8.3585     0.8649 C.ar    
  24 C24           -1.4207    -3.2642     0.2515 C.ar    
  25 C25            0.7557    -2.1146     0.1804 C.2     
  26 C26           -1.0549    -4.3867    -0.4795 C.ar    
  27 C27           -2.5931    -3.2755     0.9956 C.ar    
  28 C28            0.0093    -0.0074     0.2590 C.2     
  29 C29            1.1607    -0.8188     0.1889 C.2     
  30 C30           -1.8603    -5.5087    -0.4687 C.ar    
  31 C31           -3.3942    -4.4005     1.0023 C.ar    
  32 C32           -3.0299    -5.5149     0.2691 C.ar    
  33 C33           -1.2035     3.5906     0.3978 C.3     
  34 C34           -2.6507     4.0800     0.4829 C.3     
  35 C35           -2.6707     5.6095     0.5163 C.3     
  36 C36           -3.2999     3.5335     1.7559 C.3     
  37 H37           -2.0169     1.6293     0.3982 H       
  38 H38            1.1975    -4.1239     0.1186 H       
  39 H39           -3.0208     3.9275    -1.5023 H       
  40 H40            7.0798    -5.0932    -0.1719 H       
  41 H41            2.1740    -5.6736     0.0422 H       
  42 H42            3.7752   -10.8323    -1.7419 H       
  43 H43            2.0497   -11.5392    -0.1371 H       
  44 H44            1.2297    -9.9247     1.5650 H       
  45 H45            2.1862    -7.6329     1.5917 H       
  46 H46           -0.1418    -4.3823    -1.0562 H       
  47 H47           -2.8780    -2.4056     1.5687 H       
  48 H48            2.1825    -0.4713     0.1494 H       
  49 H49           -1.5766    -6.3819    -1.0374 H       
  50 H50           -4.3061    -4.4099     1.5808 H       
  51 H51           -3.6582    -6.3933     0.2756 H       
  52 H52           -0.6493     3.9423     1.2680 H       
  53 H53           -0.7410     3.9800    -0.5092 H       
  54 H54           -2.2082     5.9988    -0.3907 H       
  55 H55           -3.7017     5.9581     0.5769 H       
  56 H56           -2.1165     5.9612     1.3865 H       
  57 H57           -2.7457     3.8851     2.6262 H       
  58 H58           -4.3308     3.8821     1.8165 H       
  59 H59           -3.2856     2.4438     1.7321 H       
@<TRIPOS>BOND
   1    1   28 1
   2    1    3 2
   3    1    2 am
   4    2   37 1
   5    2   33 1
   6    4   14 1
   7    5   16 1
   8    5    7 2
   9    5    6 am
  10    6   38 1
  11    6   25 1
  12    8    9 1
  13    9   12 ar
  14    9   18 ar
  15   10   19 ar
  16   10   20 ar
  17   11   39 1
  18   11   34 1
  19   12   14 ar
  20   12   40 1
  21   13   25 1
  22   13   15 1
  23   13   24 1
  24   14   16 ar
  25   15   28 2
  26   16   17 ar
  27   17   41 1
  28   17   18 ar
  29   18   19 1
  30   19   23 ar
  31   20   21 ar
  32   20   42 1
  33   21   22 ar
  34   21   43 1
  35   22   23 ar
  36   22   44 1
  37   23   45 1
  38   24   27 ar
  39   24   26 ar
  40   25   29 2
  41   26   46 1
  42   26   30 ar
  43   27   47 1
  44   27   31 ar
  45   28   29 1
  46   29   48 1
  47   30   32 ar
  48   30   49 1
  49   31   50 1
  50   31   32 ar
  51   32   51 1
  52   33   34 1
  53   33   52 1
  54   33   53 1
  55   34   36 1
  56   34   35 1
  57   35   54 1
  58   35   55 1
  59   35   56 1
  60   36   57 1
  61   36   58 1
  62   36   59 1

#	End of record

