#	Name: ASD01148328
#	Creating user name:	WinNT
#	Creation time:	15. 06. 2019 19:02

#	Modifying user name:	WinNT
#	Modification time:	15. 06. 2019 19:02

#	Program:	/corina/corina34_cracker 3.40 0067  02.08.2006

@<TRIPOS>MOLECULE
ASD01148328
  55   58    0    0    0
SMALL
NO_CHARGES


@<TRIPOS>ATOM
   1 C1            -0.4091     1.8297    -0.0444 C.ar    
   2 C2            -0.4701     0.4500     0.0153 C.ar    
   3 C3             0.6945    -0.2905     0.0941 C.ar    
   4 C4             1.9201     0.3487     0.1128 C.ar    
   5 C5             1.9811     1.7283     0.0522 C.ar    
   6 C6             0.8164     2.4689    -0.0252 C.ar    
   7 C7             3.3171     2.4252     0.0730 C.3     
   8 O8             4.3318     1.6147    -0.5538 O.3     
   9 C9             3.3042     3.6750    -0.8391 C.3     
  10 C10            3.8461     3.1333    -2.1483 C.2     
  11 N11            4.3973     1.9894    -1.9156 N.2     
  12 C12            3.7578     3.7994    -3.4626 C.ar    
  13 C13            4.3018     3.1866    -4.5945 C.ar    
  14 C14            3.1254     5.0399    -3.5759 C.ar    
  15 C15            3.0432     5.6611    -4.8018 C.ar    
  16 C16            3.5920     5.0511    -5.9321 C.ar    
  17 C17            4.2194     3.8079    -5.8199 C.ar    
  18 C18            3.5033     5.7179    -7.2481 C.2     
  19 O19            4.0756     5.2432    -8.2098 O.2     
  20 N20            2.7878     6.8522    -7.3820 N.am    
  21 C21            4.8116     3.1499    -7.0395 C.3     
  22 C22            3.7169     2.7940     1.5031 C.3     
  23 F23            3.7875     1.6337     2.2816 F       
  24 F24            4.9662     3.4237     1.4903 F       
  25 F25            2.7628     3.6619     2.0449 F       
  26 N26            2.7036     7.4842    -8.6295 N.pl3   
  27 C27            1.8525     6.9206    -9.6803 C.3     
  28 C28            3.4312     8.6517    -8.8714 C.ar    
  29 C29            3.3489     9.2797   -10.1077 C.ar    
  30 C30            4.0693    10.4341   -10.3433 C.ar    
  31 C31            4.8718    10.9651    -9.3502 C.ar    
  32 C32            4.9564    10.3422    -8.1185 C.ar    
  33 C33            4.2342     9.1906    -7.8742 C.ar    
  34 H34           -1.3188     2.4080    -0.1105 H       
  35 H35           -1.4276    -0.0494     0.0007 H       
  36 H36            0.6469    -1.3684     0.1415 H       
  37 H37            2.8300    -0.2299     0.1751 H       
  38 H38            0.8641     3.5468    -0.0729 H       
  39 H39            2.2889     4.0506    -0.9665 H       
  40 H40            3.9580     4.4511    -0.4413 H       
  41 H41            4.7871     2.2257    -4.5077 H       
  42 H42            2.7007     5.5114    -2.7020 H       
  43 H43            2.5540     6.6199    -4.8896 H       
  44 H44            2.3311     7.2309    -6.6146 H       
  45 H45            5.8085     3.5515    -7.2211 H       
  46 H46            4.8773     2.0742    -6.8763 H       
  47 H47            4.1772     3.3482    -7.9034 H       
  48 H48            0.8509     7.3436    -9.6025 H       
  49 H49            2.2735     7.1607   -10.6566 H       
  50 H50            1.7999     5.8381    -9.5636 H       
  51 H51            2.7226     8.8653   -10.8839 H       
  52 H52            4.0061    10.9227   -11.3045 H       
  53 H53            5.4341    11.8680    -9.5371 H       
  54 H54            5.5844    10.7593    -7.3451 H       
  55 H55            4.3008     8.7047    -6.9120 H       
@<TRIPOS>BOND
   1    1    2 ar
   2    1    6 ar
   3    1   34 1
   4    2    3 ar
   5    2   35 1
   6    3    4 ar
   7    3   36 1
   8    4    5 ar
   9    4   37 1
  10    5    6 ar
  11    5    7 1
  12    6   38 1
  13    7    8 1
  14    7    9 1
  15    7   22 1
  16    8   11 1
  17    9   10 1
  18    9   39 1
  19    9   40 1
  20   10   11 2
  21   10   12 1
  22   12   13 ar
  23   12   14 ar
  24   13   17 ar
  25   13   41 1
  26   14   15 ar
  27   14   42 1
  28   15   16 ar
  29   15   43 1
  30   16   17 ar
  31   16   18 1
  32   17   21 1
  33   18   19 2
  34   18   20 am
  35   20   26 1
  36   20   44 1
  37   21   45 1
  38   21   46 1
  39   21   47 1
  40   22   23 1
  41   22   24 1
  42   22   25 1
  43   26   27 1
  44   26   28 1
  45   27   48 1
  46   27   49 1
  47   27   50 1
  48   28   29 ar
  49   28   33 ar
  50   29   30 ar
  51   29   51 1
  52   30   31 ar
  53   30   52 1
  54   31   32 ar
  55   31   53 1
  56   32   33 ar
  57   32   54 1
  58   33   55 1

#	End of record

