#	Name: ASD01810502
#	Creating user name:	WinNT
#	Creation time:	15. 06. 2019 19:24

#	Modifying user name:	WinNT
#	Modification time:	15. 06. 2019 19:24

#	Program:	/corina/corina34_cracker 3.40 0067  02.08.2006

@<TRIPOS>MOLECULE
ASD01810502
  76   78    0    0    0
SMALL
NO_CHARGES


@<TRIPOS>ATOM
   1 C1             0.0099     1.4260    -0.0858 C.ar    
   2 C2             0.0120     0.0392    -0.0888 C.ar    
   3 C3             1.1992    -0.6637    -0.0667 C.ar    
   4 C4             2.4174     0.0166    -0.0405 C.ar    
   5 C5             2.4102     1.4205    -0.0487 C.ar    
   6 C6             1.1997     2.1196    -0.0662 C.ar    
   7 N7             3.5942    -0.7094     0.0031 N.3     
   8 C8             4.7506     0.0010    -0.5445 C.3     
   9 C9             4.9387     1.3300     0.2014 C.3     
  10 C10            3.6876     2.1534    -0.0483 C.2     
  11 C11            3.4286    -2.0198    -0.6399 C.3     
  12 C12            4.7836    -2.6068    -0.9404 C.ar    
  13 C13            5.4144    -3.4044    -0.0040 C.ar    
  14 C14            6.6574    -3.9429    -0.2795 C.ar    
  15 C15            7.2694    -3.6841    -1.4917 C.ar    
  16 C16            6.6382    -2.8873    -2.4285 C.ar    
  17 C17            5.3933    -2.3524    -2.1546 C.ar    
  18 F18            1.1821    -2.0146    -0.0700 F       
  19 O19            3.7376     3.3506    -0.2377 O.2     
  20 C20            5.1009     1.0739     1.6776 C.2     
  21 N21            5.2799     2.1065     2.5250 N.am    
  22 O22            5.0703    -0.0614     2.1030 O.2     
  23 C23            6.3123     5.2877     9.0620 C.3     
  24 C24            6.4707     5.0375    10.5039 C.1     
  25 C25            6.5970     4.8380    11.6539 C.1     
  26 C26            6.7554     4.5878    13.0958 C.3     
  27 O27            6.9295     5.8310    13.7786 O.3     
  28 C28            7.0900     5.7772    15.1203 C.2     
  29 N29            7.0998     4.7147    15.8292 N.2     
  30 C30            7.2951     6.9680    16.0372 C.3     
  31 C31            7.0172     6.3654    17.4354 C.3     
  32 O32            7.2942     4.9673    17.2066 O.3     
  33 N33            6.1332     4.0098     8.3600 N.4     
  34 C34            7.3101     3.1595     8.5831 C.3     
  35 C35            4.9353     3.3325     8.8739 C.3     
  36 C36            5.4375     1.8575     3.9601 C.3     
  37 C37            5.6240     3.1885     4.6912 C.3     
  38 C38            5.7886     2.9285     6.1899 C.3     
  39 C39            5.9752     4.2595     6.9210 C.3     
  40 H40           -0.9268     1.9634    -0.1033 H       
  41 H41           -0.9256    -0.4963    -0.1083 H       
  42 H42            1.1975     3.1996    -0.0644 H       
  43 H43            5.6436    -0.6122    -0.4244 H       
  44 H44            4.5865     0.1993    -1.6037 H       
  45 H45            5.8129     1.8539    -0.1853 H       
  46 H46            2.8840    -2.6864     0.0288 H       
  47 H47            2.8701    -1.9009    -1.5684 H       
  48 H48            4.9362    -3.6065     0.9431 H       
  49 H49            7.1505    -4.5654     0.4523 H       
  50 H50            8.2408    -4.1042    -1.7068 H       
  51 H51            7.1165    -2.6849    -3.3754 H       
  52 H52            4.9001    -1.7298    -2.8865 H       
  53 H53            5.3044     3.0145     2.1848 H       
  54 H54            5.4390     5.9187     8.8964 H       
  55 H55            7.2011     5.7903     8.6806 H       
  56 H56            5.8665     4.0852    13.4771 H       
  57 H57            7.6286     3.9569    13.2613 H       
  58 H58            8.3190     7.3359    15.9708 H       
  59 H59            6.5823     7.7602    15.8084 H       
  60 H60            7.6956     6.7795    18.1813 H       
  61 H61            5.9781     6.5180    17.7271 H       
  62 H62            8.1990     3.6621     8.2017 H       
  63 H63            7.4274     2.9742     9.6508 H       
  64 H64            7.1773     2.2112     8.0622 H       
  65 H65            4.8024     2.3842     8.3531 H       
  66 H66            5.0526     3.1472     9.9417 H       
  67 H67            4.0620     3.9634     8.7084 H       
  68 H68            4.5487     1.3549     4.3414 H       
  69 H69            6.3108     1.2266     4.1256 H       
  70 H70            6.5129     3.6911     4.3098 H       
  71 H71            4.7507     3.8194     4.5257 H       
  72 H72            4.8998     2.4259     6.5713 H       
  73 H73            6.6619     2.2975     6.3554 H       
  74 H74            5.1019     4.8904     6.7555 H       
  75 H75            6.8640     4.7620     6.5397 H       
  76 Br76          13.3190    12.7602    23.1813 Br      
@<TRIPOS>BOND
   1    1    2 ar
   2    1    6 ar
   3    1   40 1
   4    2    3 ar
   5    2   41 1
   6    3    4 ar
   7    3   18 1
   8    4    5 ar
   9    4    7 1
  10    5    6 ar
  11    5   10 1
  12    6   42 1
  13    7    8 1
  14    7   11 1
  15    8    9 1
  16    8   43 1
  17    8   44 1
  18    9   10 1
  19    9   20 1
  20    9   45 1
  21   10   19 2
  22   11   12 1
  23   11   46 1
  24   11   47 1
  25   12   13 ar
  26   12   17 ar
  27   13   14 ar
  28   13   48 1
  29   14   15 ar
  30   14   49 1
  31   15   16 ar
  32   15   50 1
  33   16   17 ar
  34   16   51 1
  35   17   52 1
  36   20   21 am
  37   20   22 2
  38   21   36 1
  39   21   53 1
  40   23   24 1
  41   23   33 1
  42   23   54 1
  43   23   55 1
  44   24   25 3
  45   25   26 1
  46   26   27 1
  47   26   56 1
  48   26   57 1
  49   27   28 1
  50   28   29 2
  51   28   30 1
  52   29   32 1
  53   30   31 1
  54   30   58 1
  55   30   59 1
  56   31   32 1
  57   31   60 1
  58   31   61 1
  59   33   39 1
  60   33   34 1
  61   33   35 1
  62   34   62 1
  63   34   63 1
  64   34   64 1
  65   35   65 1
  66   35   66 1
  67   35   67 1
  68   36   37 1
  69   36   68 1
  70   36   69 1
  71   37   38 1
  72   37   70 1
  73   37   71 1
  74   38   39 1
  75   38   72 1
  76   38   73 1
  77   39   74 1
  78   39   75 1

#	End of record

