#	Name: ASD01814144
#	Creating user name:	WinNT
#	Creation time:	15. 06. 2019 19:31

#	Modifying user name:	WinNT
#	Modification time:	15. 06. 2019 19:31

#	Program:	/corina/corina34_cracker 3.40 0067  02.08.2006

@<TRIPOS>MOLECULE
ASD01814144
  63   65    0    0    0
SMALL
NO_CHARGES


@<TRIPOS>ATOM
   1 N1            -0.1673     1.3371    -0.1151 N.am    
   2 C2            -0.2536    -0.0067    -0.1719 C.2     
   3 N3            -1.3383    -0.6340     0.3243 N.am    
   4 O4             0.6473    -0.6531    -0.6709 O.2     
   5 C5            -1.5147    -2.0724     0.1099 C.3     
   6 C6            -2.8165    -2.5307     0.7705 C.3     
   7 N7            -2.9933    -3.9731     0.5555 N.3     
   8 C8            -4.2360    -4.4495     1.1774 C.3     
   9 C9            -2.6040    -7.1775    -0.1609 C.2     
  10 O10           -2.4812    -7.7604    -1.3683 O.3     
  11 O11           -1.6542    -7.1421     0.5961 O.2     
  12 C12           -1.1852    -8.3257    -1.6986 C.3     
  13 C13            1.1422     2.0032    -0.0993 C.3     
  14 C14            1.2026     2.9432     1.1088 C.3     
  15 C15            0.0104     3.9017     1.0645 C.3     
  16 C16           -1.2923     3.1020     1.1395 C.3     
  17 C17           -1.3811     2.1640    -0.0739 C.3     
  18 C18           -5.4077    -4.2302     0.2159 C.3     
  19 C19           -5.2345    -5.1186    -1.0196 C.3     
  20 C20           -5.0458    -6.5740    -0.5630 C.3     
  21 N21           -3.7805    -6.6332     0.2081 N.am    
  22 C22           -4.1165    -5.9514     1.4815 C.3     
  23 C23           -5.5273    -6.4768     1.8339 C.3     
  24 C24           -6.1426    -6.8890     0.4802 C.3     
  25 C25           -1.2384    -8.9391    -3.0992 C.3     
  26 C26            2.2501     0.9539     0.0113 C.3     
  27 C27           -2.6095     1.2624     0.0636 C.3     
  28 H28           -2.0023    -0.1330     0.8234 H       
  29 H29           -1.5581    -2.2778    -0.9597 H       
  30 H30           -0.6751    -2.6109     0.5495 H       
  31 H31           -2.7731    -2.3253     1.8401 H       
  32 H32           -3.6561    -1.9922     0.3309 H       
  33 H33           -2.9721    -4.1974    -0.4280 H       
  34 H34           -4.4151    -3.9011     2.1022 H       
  35 H35           -0.4295    -7.5406    -1.6742 H       
  36 H36           -0.9302    -9.0982    -0.9731 H       
  37 H37            1.2708     2.5781    -1.0164 H       
  38 H38            1.1649     2.3578     2.0275 H       
  39 H39            2.1303     3.5148     1.0789 H       
  40 H40            0.0645     4.5878     1.9098 H       
  41 H41            0.0351     4.4692     0.1343 H       
  42 H42           -1.3065     2.5151     2.0579 H       
  43 H43           -2.1404     3.7866     1.1315 H       
  44 H44           -1.4588     2.7542    -0.9870 H       
  45 H45           -6.3412    -4.4848     0.7177 H       
  46 H46           -5.4347    -3.1845    -0.0903 H       
  47 H47           -6.1214    -5.0454    -1.6490 H       
  48 H48           -4.3581    -4.7957    -1.5815 H       
  49 H49           -5.0504    -7.2707    -1.4013 H       
  50 H50           -3.3847    -6.1546     2.2632 H       
  51 H51           -5.4566    -7.3389     2.4971 H       
  52 H52           -6.1212    -5.6886     2.2967 H       
  53 H53           -7.0393    -6.3036     0.2768 H       
  54 H54           -6.3747    -7.9540     0.4773 H       
  55 H55           -1.9941    -9.7242    -3.1237 H       
  56 H56           -1.4934    -8.1666    -3.8247 H       
  57 H57           -0.2655    -9.3634    -3.3472 H       
  58 H58            2.3116     0.3909    -0.9200 H       
  59 H59            3.2024     1.4495     0.1999 H       
  60 H60            2.0255     0.2736     0.8329 H       
  61 H61           -3.4861     1.7809    -0.3247 H       
  62 H62           -2.4510     0.3437    -0.5011 H       
  63 H63           -2.7666     1.0202     1.1147 H       
@<TRIPOS>BOND
   1    1    2 am
   2    1   13 1
   3    1   17 1
   4    2    3 am
   5    2    4 2
   6    3    5 1
   7    3   28 1
   8    5    6 1
   9    5   29 1
  10    5   30 1
  11    6    7 1
  12    6   31 1
  13    6   32 1
  14    7    8 1
  15    7   33 1
  16    8   18 1
  17    8   22 1
  18    8   34 1
  19    9   10 1
  20    9   11 2
  21    9   21 am
  22   10   12 1
  23   12   25 1
  24   12   35 1
  25   12   36 1
  26   13   14 1
  27   13   26 1
  28   13   37 1
  29   14   15 1
  30   14   38 1
  31   14   39 1
  32   15   16 1
  33   15   40 1
  34   15   41 1
  35   16   17 1
  36   16   42 1
  37   16   43 1
  38   17   27 1
  39   17   44 1
  40   18   19 1
  41   18   45 1
  42   18   46 1
  43   19   20 1
  44   19   47 1
  45   19   48 1
  46   20   21 1
  47   20   24 1
  48   20   49 1
  49   21   22 1
  50   22   23 1
  51   22   50 1
  52   23   24 1
  53   23   51 1
  54   23   52 1
  55   24   53 1
  56   24   54 1
  57   25   55 1
  58   25   56 1
  59   25   57 1
  60   26   58 1
  61   26   59 1
  62   26   60 1
  63   27   61 1
  64   27   62 1
  65   27   63 1

#	End of record

