#	Name: ASD01900700
#	Creating user name:	WinNT
#	Creation time:	15. 06. 2019 19:52

#	Modifying user name:	WinNT
#	Modification time:	15. 06. 2019 19:52

#	Program:	/corina/corina34_cracker 3.40 0067  02.08.2006

@<TRIPOS>MOLECULE
ASD01900700
  33   36    0    0    0
SMALL
NO_CHARGES


@<TRIPOS>ATOM
   1 C1            -0.0158     1.4087    -0.1143 C.ar    
   2 C2             0.0118     0.0197    -0.1185 C.ar    
   3 C3            -1.1603    -0.7070    -0.0670 C.ar    
   4 C4            -2.3833    -0.0520    -0.0100 C.ar    
   5 C5            -2.4091     1.3491    -0.0099 C.ar    
   6 O6            -3.5356    -0.7547     0.0521 O.3     
   7 C7            -4.7275    -0.1809    -0.1885 C.2     
   8 C8            -4.9042     1.1648    -0.2044 C.2     
   9 C9            -3.7317     2.0233     0.0380 C.2     
  10 C10           -5.8889    -1.0482    -0.4460 C.2     
  11 N11           -7.1041    -0.4998    -0.6918 N.2     
  12 C12           -8.1536    -1.2286    -0.9240 C.2     
  13 N13           -8.0875    -2.5948    -0.9326 N.pl3   
  14 C14           -6.8764    -3.2183    -0.6888 C.2     
  15 C15           -5.7402    -2.4250    -0.4429 C.2     
  16 C16           -1.2278     2.0774    -0.0544 C.ar    
  17 O17            1.1469     2.1119    -0.1634 O.3     
  18 C18           -9.0257    -3.5586    -1.1461 C.2     
  19 C19           -8.4395    -4.7764    -1.0436 C.2     
  20 C20           -7.0851    -4.5831    -0.7559 C.2     
  21 N21           -3.8488     3.3071     0.2813 N.2     
  22 O22           -2.7114     4.0638     0.6538 O.3     
  23 H23            0.9595    -0.4964    -0.1628 H       
  24 H24           -1.1263    -1.7865    -0.0713 H       
  25 H25           -5.8776     1.5944    -0.3896 H       
  26 H26           -9.1004    -0.7449    -1.1143 H       
  27 H27           -4.7792    -2.8782    -0.2493 H       
  28 H28           -1.2539     3.1570    -0.0507 H       
  29 H29            1.4448     2.3171    -1.0602 H       
  30 H30          -10.0689    -3.3812    -1.3622 H       
  31 H31           -8.9326    -5.7297    -1.1637 H       
  32 H32           -6.3425    -5.3542    -0.6130 H       
  33 H33           -2.8963     4.9997     0.8123 H       
@<TRIPOS>BOND
   1    1    2 ar
   2    1   17 1
   3    1   16 ar
   4    2    3 ar
   5    2   23 1
   6    3    4 ar
   7    3   24 1
   8    4    5 ar
   9    4    6 1
  10    5   16 ar
  11    5    9 1
  12    6    7 1
  13    7    8 2
  14    7   10 1
  15    8    9 1
  16    8   25 1
  17    9   21 2
  18   10   11 1
  19   10   15 2
  20   11   12 2
  21   12   13 1
  22   12   26 1
  23   13   14 1
  24   13   18 1
  25   14   15 1
  26   14   20 2
  27   15   27 1
  28   16   28 1
  29   17   29 1
  30   18   19 2
  31   18   30 1
  32   19   20 1
  33   19   31 1
  34   20   32 1
  35   21   22 1
  36   22   33 1

#	End of record

