#	Name: ASD07930949
#	Creating user name:	WinNT
#	Creation time:	15. 06. 2019 21:13

#	Modifying user name:	WinNT
#	Modification time:	15. 06. 2019 21:13

#	Program:	/corina/corina34_cracker 3.40 0067  02.08.2006

@<TRIPOS>MOLECULE
ASD07930949
  49   54    0    0    0
SMALL
NO_CHARGES


@<TRIPOS>ATOM
   1 C1            -0.0169     1.3965     0.0097 C.ar    
   2 N2             0.0021    -0.0041     0.0020 N.am    
   3 N3            -0.0766    -0.8097     1.1408 N.2     
   4 C4            -0.0352    -2.0723     0.8247 C.2     
   5 C5             0.0813    -2.1542    -0.6490 C.2     
   6 C6             0.0932    -0.7683    -1.1077 C.2     
   7 O7             0.1761    -0.3787    -2.2611 O.2     
   8 C8            -0.0770    -3.3448     1.5702 C.ar    
   9 C9            -0.0043    -4.5449     0.8436 C.ar    
  10 N10            0.1041    -4.5249    -0.5377 N.pl3   
  11 C11            0.1444    -3.3860    -1.2516 C.2     
  12 C12           -0.1848    -3.3712     2.9568 C.ar    
  13 C13           -0.2201    -4.5825     3.6169 C.ar    
  14 C14           -0.1487    -5.7677     2.9030 C.ar    
  15 C15           -0.0420    -5.7546     1.5277 C.ar    
  16 C16            0.1744    -5.7442    -1.2202 C.ar    
  17 C17            1.4107    -6.3334    -1.4647 C.ar    
  18 C18            1.1746     2.1084     0.0022 C.ar    
  19 C19            1.1527     3.4899     0.0093 C.ar    
  20 C20           -0.0539     4.1646     0.0244 C.ar    
  21 C21           -1.2440     3.4599     0.0320 C.ar    
  22 C22           -1.2301     2.0773     0.0191 C.ar    
  23 F23           -2.3924     1.3887     0.0265 F       
  24 C24           -0.9899    -6.3677    -1.6478 C.ar    
  25 C25           -0.9177    -7.5709    -2.3213 C.ar    
  26 C26            0.3115    -8.1523    -2.5680 C.ar    
  27 C27            1.4762    -7.5371    -2.1389 C.ar    
  28 C28            2.9212    -7.9647    -2.2834 C.3     
  29 C29            3.6965    -7.1251    -1.2460 C.3     
  30 C30            2.8062    -5.8712    -1.1044 C.3     
  31 O31            3.0572    -9.3577    -1.9954 O.3     
  32 H32            0.2294    -3.4418    -2.3268 H       
  33 H33           -0.2402    -2.4479     3.5143 H       
  34 H34           -0.3034    -4.6066     4.6935 H       
  35 H35           -0.1772    -6.7110     3.4283 H       
  36 H36            0.0129    -6.6849     0.9819 H       
  37 H37            2.1180     1.5830    -0.0089 H       
  38 H38            2.0799     4.0438     0.0034 H       
  39 H39           -0.0673     5.2445     0.0307 H       
  40 H40           -2.1849     3.9899     0.0438 H       
  41 H41           -1.9500    -5.9128    -1.4539 H       
  42 H42           -1.8220    -8.0579    -2.6550 H       
  43 H43            0.3641    -9.0939    -3.0944 H       
  44 H44            3.2806    -7.7488    -3.2895 H       
  45 H45            3.7743    -7.6565    -0.2975 H       
  46 H46            4.6834    -6.8576    -1.6236 H       
  47 H47            3.1361    -5.0934    -1.7931 H       
  48 H48            2.8303    -5.5042    -0.0783 H       
  49 H49            3.9626    -9.6886    -2.0720 H       
@<TRIPOS>BOND
   1    1    2 1
   2    1   18 ar
   3    1   22 ar
   4    2    3 1
   5    2    6 am
   6    3    4 2
   7    4    5 1
   8    4    8 1
   9    5    6 1
  10    5   11 2
  11    6    7 2
  12    8    9 ar
  13    8   12 ar
  14    9   10 1
  15    9   15 ar
  16   10   11 1
  17   10   16 1
  18   11   32 1
  19   12   13 ar
  20   12   33 1
  21   13   14 ar
  22   13   34 1
  23   14   15 ar
  24   14   35 1
  25   15   36 1
  26   16   17 ar
  27   16   24 ar
  28   17   27 ar
  29   17   30 1
  30   18   19 ar
  31   18   37 1
  32   19   20 ar
  33   19   38 1
  34   20   21 ar
  35   20   39 1
  36   21   22 ar
  37   21   40 1
  38   22   23 1
  39   24   25 ar
  40   24   41 1
  41   25   26 ar
  42   25   42 1
  43   26   27 ar
  44   26   43 1
  45   27   28 1
  46   28   29 1
  47   28   31 1
  48   28   44 1
  49   29   30 1
  50   29   45 1
  51   29   46 1
  52   30   47 1
  53   30   48 1
  54   31   49 1

#	End of record

