#	Name: ASD05143263
#	Creating user name:	WinNT
#	Creation time:	15. 06. 2019 20:57

#	Modifying user name:	WinNT
#	Modification time:	15. 06. 2019 20:57

#	Program:	/corina/corina34_cracker 3.40 0067  02.08.2006

@<TRIPOS>MOLECULE
ASD05143263
  41   43    0    0    0
SMALL
NO_CHARGES


@<TRIPOS>ATOM
   1 C1            -0.2468     1.4572     0.0975 C.2     
   2 N2            -0.0153     0.2028    -0.2355 N.2     
   3 S3            -1.5400    -0.5443    -0.3030 S.3     
   4 C4            -2.4144     0.8773     0.1225 C.2     
   5 N5            -1.5025     1.8097     0.2905 N.2     
   6 N6            -3.7836     1.0089     0.2628 N.pl3   
   7 C7            -4.3250     2.2030     0.7473 C.ar    
   8 C8            -5.6232     2.5656     0.4114 C.ar    
   9 C9            -6.1552     3.7458     0.8922 C.ar    
  10 C10           -5.3969     4.5666     1.7069 C.ar    
  11 C11           -4.1040     4.2089     2.0430 C.ar    
  12 C12           -3.5680     3.0270     1.5706 C.ar    
  13 C13            1.2036    -0.3785    -0.4779 C.ar    
  14 C14            1.6073    -1.4932     0.2590 C.ar    
  15 C15            2.0424     0.1387    -1.4665 C.ar    
  16 C16            3.2665    -0.4504    -1.7060 C.ar    
  17 C17            3.6635    -1.5530    -0.9683 C.ar    
  18 C18            2.8337    -2.0736     0.0103 C.ar    
  19 C19            0.8597     2.4298     0.2545 C.ar    
  20 C20            0.6610     3.7733    -0.0623 C.ar    
  21 C21            2.1024     2.0066     0.7251 C.ar    
  22 C22            3.1289     2.9172     0.8697 C.ar    
  23 C23            2.9273     4.2477     0.5488 C.ar    
  24 C24            1.6953     4.6746     0.0864 C.ar    
  25 Cl25           5.2052    -2.2893    -1.2759 Cl      
  26 H26           -4.3685     0.2725     0.0250 H       
  27 H27           -6.2157     1.9254    -0.2255 H       
  28 H28           -7.1644     4.0284     0.6313 H       
  29 H29           -5.8152     5.4892     2.0813 H       
  30 H30           -3.5144     4.8523     2.6792 H       
  31 H31           -2.5584     2.7480     1.8338 H       
  32 H32            0.9609    -1.9001     1.0226 H       
  33 H33            1.7335     0.9982    -2.0429 H       
  34 H34            3.9164    -0.0511    -2.4705 H       
  35 H35            3.1489    -2.9335     0.5827 H       
  36 H36           -0.3002     4.1076    -0.4237 H       
  37 H37            2.2608     0.9682     0.9763 H       
  38 H38            4.0916     2.5907     1.2344 H       
  39 H39            3.7337     4.9569     0.6639 H       
  40 H40            1.5439     5.7145    -0.1628 H       
  41 Br41          10.2052    10.7145     7.6792 Br      
@<TRIPOS>BOND
   1    1    2 2
   2    1   19 1
   3    1    5 1
   4    2    3 1
   5    2   13 1
   6    3    4 1
   7    4    5 2
   8    4    6 1
   9    6    7 1
  10    6   26 1
  11    7    8 ar
  12    7   12 ar
  13    8    9 ar
  14    8   27 1
  15    9   10 ar
  16    9   28 1
  17   10   11 ar
  18   10   29 1
  19   11   12 ar
  20   11   30 1
  21   12   31 1
  22   13   14 ar
  23   13   15 ar
  24   14   18 ar
  25   14   32 1
  26   15   16 ar
  27   15   33 1
  28   16   17 ar
  29   16   34 1
  30   17   18 ar
  31   17   25 1
  32   18   35 1
  33   19   20 ar
  34   19   21 ar
  35   20   24 ar
  36   20   36 1
  37   21   22 ar
  38   21   37 1
  39   22   23 ar
  40   22   38 1
  41   23   24 ar
  42   23   39 1
  43   24   40 1

#	End of record

