#	Name: ASD03091579
#	Creating user name:	WinNT
#	Creation time:	15. 06. 2019 20:31

#	Modifying user name:	WinNT
#	Modification time:	15. 06. 2019 20:31

#	Program:	/corina/corina34_cracker 3.40 0067  02.08.2006

@<TRIPOS>MOLECULE
ASD03091579
  44   46    0    0    0
SMALL
NO_CHARGES


@<TRIPOS>ATOM
   1 C1             0.0348     1.2324    -0.2081 C.2     
   2 C2            -0.0590    -0.0921     0.0326 C.2     
   3 N3            -1.2850    -0.5184     0.2455 N.2     
   4 C4            -2.2348     0.3668     0.1993 C.2     
   5 S5            -1.5882     1.9136    -0.1347 S.3     
   6 N6            -3.5767     0.0972     0.3982 N.3     
   7 C7            -4.3791     0.5408    -0.7510 C.3     
   8 C8            -3.7931    -1.3324     0.6638 C.3     
   9 C9            -5.2798    -1.5760     0.9364 C.3     
  10 O10           -6.0461    -1.1102    -0.1777 O.3     
  11 C11           -5.8599     0.2785    -0.4643 C.3     
  12 C12            1.2785     1.9796    -0.4788 C.ar    
  13 C13            1.3621     2.8737    -1.5545 C.ar    
  14 C14            2.4071     1.8193     0.3363 C.ar    
  15 C15            3.5471     2.5374     0.0471 C.ar    
  16 N16            3.5843     3.3662    -0.9798 N.ar    
  17 C17            2.5429     3.5507    -1.7700 C.ar    
  18 C18            1.1394    -1.0056     0.0555 C.3     
  19 N19            1.6047    -1.1683     1.4394 N.3     
  20 C20            2.6486     4.5107    -2.9268 C.3     
  21 C21            4.7681     2.3747     0.9153 C.3     
  22 F22           -4.7706    -3.5291     2.2213 F       
  23 F23           -6.8830    -3.2949     1.3834 F       
  24 C24           -5.5243    -3.0732     1.1344 C.3     
  25 F25           -5.1430    -3.7648    -0.0204 F       
  26 H26           -4.2232     1.6073    -0.9138 H       
  27 H27           -4.0772    -0.0117    -1.6408 H       
  28 H28           -3.4818    -1.9149    -0.2033 H       
  29 H29           -3.2095    -1.6334     1.5338 H       
  30 H30           -5.5784    -1.0358     1.8348 H       
  31 H31           -6.1754     0.8726     0.3934 H       
  32 H32           -6.4537     0.5531    -1.3362 H       
  33 H33            0.5141     3.0296    -2.2050 H       
  34 H34            2.3837     1.1436     1.1785 H       
  35 H35            0.8628    -1.9781    -0.3515 H       
  36 H36            1.9376    -0.5729    -0.5477 H       
  37 H37            0.8626    -1.5075     2.0328 H       
  38 H38            2.4083    -1.7770     1.4814 H       
  39 H39            2.9978     3.9773    -3.8109 H       
  40 H40            1.6698     4.9462    -3.1282 H       
  41 H41            3.3546     5.3030    -2.6781 H       
  42 H42            5.3903     1.5716     0.5204 H       
  43 H43            5.3361     3.3050     0.9214 H       
  44 H44            4.4609     2.1299     1.9320 H       
@<TRIPOS>BOND
   1    1    2 2
   2    1   12 1
   3    1    5 1
   4    2    3 1
   5    2   18 1
   6    3    4 2
   7    4    5 1
   8    4    6 1
   9    6    7 1
  10    6    8 1
  11    7   11 1
  12    7   26 1
  13    7   27 1
  14    8    9 1
  15    8   28 1
  16    8   29 1
  17    9   10 1
  18    9   24 1
  19    9   30 1
  20   10   11 1
  21   11   31 1
  22   11   32 1
  23   12   13 ar
  24   12   14 ar
  25   13   17 ar
  26   13   33 1
  27   14   15 ar
  28   14   34 1
  29   15   16 ar
  30   15   21 1
  31   16   17 ar
  32   17   20 1
  33   18   19 1
  34   18   35 1
  35   18   36 1
  36   19   37 1
  37   19   38 1
  38   20   39 1
  39   20   40 1
  40   20   41 1
  41   21   42 1
  42   21   43 1
  43   21   44 1
  44   22   24 1
  45   23   24 1
  46   24   25 1

#	End of record

