#	Name: ASD01230044
#	Creating user name:	WinNT
#	Creation time:	15. 06. 2019 19:11

#	Modifying user name:	WinNT
#	Modification time:	15. 06. 2019 19:11

#	Program:	/corina/corina34_cracker 3.40 0067  02.08.2006

@<TRIPOS>MOLECULE
ASD01230044
  58   61    0    0    0
SMALL
NO_CHARGES


@<TRIPOS>ATOM
   1 P1             0.6183     1.8496    -0.0647 P.3     
   2 O2             0.8499     0.4322    -0.4221 O.2     
   3 O3             1.6398     2.2828     1.1020 O.3     
   4 O4             0.8587     2.7757    -1.3596 O.3     
   5 N5            -0.9641     2.0406     0.4757 N.3     
   6 O6            -3.3354     0.5540     2.3063 O.3     
   7 C7            -2.3004     0.2654     1.5045 C.2     
   8 C8            -1.1946     1.2779     1.7098 C.3     
   9 C9            -1.7137     2.2087     2.8282 C.3     
  10 C10           -2.8875     1.3909     3.4134 C.3     
  11 O11           -2.2568    -0.6642     0.7339 O.2     
  12 C12            1.7808     1.3556     2.0855 C.ar    
  13 C13            2.4312     0.1584     1.8237 C.ar    
  14 C14            2.0688    -0.5314     4.0878 C.ar    
  15 C15            1.2797     1.6070     3.3545 C.ar    
  16 C16            2.5737    -0.7823     2.8253 C.ar    
  17 C17            1.4248     0.6631     4.3526 C.ar    
  18 C18            2.2252    -1.5596     5.1785 C.3     
  19 C19            0.2581     2.5101    -2.6287 C.3     
  20 O20            2.1105     3.4737    -3.8957 O.3     
  21 C21            0.6942     3.5788    -3.6330 C.3     
  22 C22            0.0200     3.3376    -5.0018 C.3     
  23 C23            1.1098     3.7169    -6.0292 C.3     
  24 C24            2.3137     4.1423    -5.1597 C.3     
  25 O25           -1.1244     4.1803    -5.1516 O.3     
  26 F26            1.4429     2.6125    -6.8208 F       
  27 F27            0.6811     4.7825    -6.8279 F       
  28 C28            3.7990     2.3876    -5.9552 C.2     
  29 N29            4.9304     1.9586    -6.5117 N.2     
  30 C30            5.8614     2.8189    -6.9031 C.2     
  31 C31            5.6502     4.2020    -6.7277 C.2     
  32 C32            4.4948     4.6223    -6.1603 C.2     
  33 N33            3.5681     3.7009    -5.7743 N.am    
  34 O34            2.9561     1.5769    -5.6082 O.2     
  35 N35            7.0263     2.3642    -7.4764 N.pl3   
  36 H36           -1.1862     3.0161     0.6067 H       
  37 H37           -0.2780     0.7797     2.0257 H       
  38 H38           -0.9441     2.3771     3.5816 H       
  39 H39           -2.0668     3.1533     2.4145 H       
  40 H40           -3.6893     2.0542     3.7378 H       
  41 H41           -2.5445     0.7728     4.2432 H       
  42 H42            2.8254    -0.0381     0.8376 H       
  43 H43            0.7770     2.5401     3.5619 H       
  44 H44            3.0796    -1.7145     2.6219 H       
  45 H45            1.0313     0.8567     5.3396 H       
  46 H46            3.1575    -1.3816     5.7145 H       
  47 H47            1.3874    -1.4843     5.8716 H       
  48 H48            2.2440    -2.5565     4.7380 H       
  49 H49            0.5745     1.5287    -2.9821 H       
  50 H50           -0.8271     2.5275    -2.5280 H       
  51 H51            0.4503     4.5734    -3.2599 H       
  52 H52           -0.2594     2.2896    -5.1106 H       
  53 H53            2.3181     5.2234    -5.0207 H       
  54 H54           -1.5864     4.0701    -5.9940 H       
  55 H55            6.3985     4.9150    -7.0407 H       
  56 H56            4.3099     5.6764    -6.0150 H       
  57 H57            7.1688     1.4122    -7.5954 H       
  58 H58            7.7051     2.9957    -7.7615 H       
@<TRIPOS>BOND
   1    1    2 2
   2    1    3 1
   3    1    4 1
   4    1    5 1
   5    3   12 1
   6    4   19 1
   7    5    8 1
   8    5   36 1
   9    6    7 1
  10    6   10 1
  11    7    8 1
  12    7   11 2
  13    8    9 1
  14    8   37 1
  15    9   10 1
  16    9   38 1
  17    9   39 1
  18   10   40 1
  19   10   41 1
  20   12   13 ar
  21   12   15 ar
  22   13   16 ar
  23   13   42 1
  24   14   16 ar
  25   14   17 ar
  26   14   18 1
  27   15   17 ar
  28   15   43 1
  29   16   44 1
  30   17   45 1
  31   18   46 1
  32   18   47 1
  33   18   48 1
  34   19   21 1
  35   19   49 1
  36   19   50 1
  37   20   21 1
  38   20   24 1
  39   21   22 1
  40   21   51 1
  41   22   23 1
  42   22   25 1
  43   22   52 1
  44   23   24 1
  45   23   26 1
  46   23   27 1
  47   24   33 1
  48   24   53 1
  49   25   54 1
  50   28   29 1
  51   28   33 am
  52   28   34 2
  53   29   30 2
  54   30   31 1
  55   30   35 1
  56   31   32 2
  57   31   55 1
  58   32   33 1
  59   32   56 1
  60   35   57 1
  61   35   58 1

#	End of record

