#	Name: ASD01913646
#	Creating user name:	WinNT
#	Creation time:	15. 06. 2019 20:02

#	Modifying user name:	WinNT
#	Modification time:	15. 06. 2019 20:02

#	Program:	/corina/corina34_cracker 3.40 0067  02.08.2006

@<TRIPOS>MOLECULE
ASD01913646
  39   41    0    0    0
SMALL
NO_CHARGES


@<TRIPOS>ATOM
   1 C1            -0.0779     1.5155    -0.0056 C.ar    
   2 C2            -0.0767     0.1310     0.0080 C.ar    
   3 C3             1.1236    -0.5592     0.0134 C.ar    
   4 C4             2.3189     0.1344     0.0051 C.ar    
   5 C5             2.3164     1.5168    -0.0086 C.ar    
   6 C6             1.1186     2.2070    -0.0139 C.ar    
   7 C7             3.6206     2.2719    -0.0171 C.3     
   8 O8             4.0316     2.4974    -1.3670 O.3     
   9 C9             5.1940     3.1688    -1.5521 C.ar    
  10 N10            5.8853     3.5790    -0.5000 N.ar    
  11 C11            7.0198     4.2348    -0.6279 C.ar    
  12 C12            7.5362     4.5220    -1.8920 C.ar    
  13 C13            6.8280     4.1012    -3.0277 C.ar    
  14 C14            5.6468     3.4123    -2.8453 C.ar    
  15 C15            8.8079     5.2577    -2.0322 C.2     
  16 N16            9.4797     5.6575    -0.9343 N.am    
  17 O17            9.2496     5.5031    -3.1382 O.2     
  18 C18           10.7276     6.2804    -1.0649 C.ar    
  19 C19           11.6495     6.2173    -0.0259 C.ar    
  20 C20           12.8807     6.8333    -0.1579 C.ar    
  21 C21           13.1942     7.5122    -1.3232 C.ar    
  22 C22           12.2768     7.5756    -2.3585 C.ar    
  23 C23           11.0481     6.9567    -2.2339 C.ar    
  24 F24           -1.2458    -0.5460     0.0166 F       
  25 F25           11.3428     5.5555     1.1113 F       
  26 F26           14.3970     8.1142    -1.4502 F       
  27 H27           -1.0136     2.0549    -0.0143 H       
  28 H28            1.1257    -1.6391     0.0243 H       
  29 H29            3.2552    -0.4037     0.0096 H       
  30 H30            1.1179     3.2869    -0.0245 H       
  31 H31            3.4894     3.2292     0.4875 H       
  32 H32            4.3814     1.6889     0.5019 H       
  33 H33            7.5556     4.5537     0.2539 H       
  34 H34            7.2007     4.3077    -4.0201 H       
  35 H35            5.0757     3.0729    -3.6968 H       
  36 H36            9.0990     5.5140    -0.0538 H       
  37 H37           13.5977     6.7851     0.6483 H       
  38 H38           12.5239     8.1058    -3.2664 H       
  39 H39           10.3336     7.0066    -3.0423 H       
@<TRIPOS>BOND
   1    1    2 ar
   2    1    6 ar
   3    1   27 1
   4    2    3 ar
   5    2   24 1
   6    3    4 ar
   7    3   28 1
   8    4    5 ar
   9    4   29 1
  10    5    6 ar
  11    5    7 1
  12    6   30 1
  13    7    8 1
  14    7   31 1
  15    7   32 1
  16    8    9 1
  17    9   10 ar
  18    9   14 ar
  19   10   11 ar
  20   11   12 ar
  21   11   33 1
  22   12   13 ar
  23   12   15 1
  24   13   14 ar
  25   13   34 1
  26   14   35 1
  27   15   16 am
  28   15   17 2
  29   16   18 1
  30   16   36 1
  31   18   19 ar
  32   18   23 ar
  33   19   20 ar
  34   19   25 1
  35   20   21 ar
  36   20   37 1
  37   21   22 ar
  38   21   26 1
  39   22   23 ar
  40   22   38 1
  41   23   39 1

#	End of record

