#	Name: ASD01150045
#	Creating user name:	WinNT
#	Creation time:	15. 06. 2019 19:03

#	Modifying user name:	WinNT
#	Modification time:	15. 06. 2019 19:03

#	Program:	/corina/corina34_cracker 3.40 0067  02.08.2006

@<TRIPOS>MOLECULE
ASD01150045
  50   53    0    0    0
SMALL
NO_CHARGES


@<TRIPOS>ATOM
   1 C1            -0.0159     1.3210     0.0093 C.ar    
   2 N2             0.0021    -0.0041     0.0020 N.ar    
   3 C3            -1.1222    -0.7023     0.0094 C.ar    
   4 C4            -2.3400    -0.0265     0.0252 C.ar    
   5 C5            -2.3208     1.3810     0.0325 C.ar    
   6 N6            -1.1495     2.0064     0.0293 N.ar    
   7 C7            -3.6228    -0.7700     0.0334 C.ar    
   8 C8            -3.8485    -1.7861    -0.8938 C.ar    
   9 C9            -5.0441    -2.4751    -0.8811 C.ar    
  10 C10           -6.0177    -2.1591     0.0495 C.ar    
  11 C11           -5.7992    -1.1518     0.9720 C.ar    
  12 C12           -4.6053    -0.4596     0.9722 C.ar    
  13 C13           -7.3214    -2.9149     0.0579 C.3     
  14 F14           -7.2098    -4.0280     0.8980 F       
  15 F15           -8.3419    -2.0792     0.5243 F       
  16 F16           -7.6229    -3.3391    -1.2407 F       
  17 N17           -3.5023     2.1005     0.0477 N.pl3   
  18 C18           -3.4680     3.5650     0.0552 C.3     
  19 C19           -3.3520     4.0939     1.5031 C.3     
  20 C20           -4.6430     4.9417     1.7177 C.3     
  21 C21           -4.4371     6.2003     0.8205 C.3     
  22 C22           -4.5531     5.6714    -0.6273 C.3     
  23 C23           -4.8181     4.1430    -0.4687 C.3     
  24 C24           -5.6696     4.1316     0.8497 C.3     
  25 N25            1.1843     2.0087     0.0015 N.pl3   
  26 C26            2.4506     1.2720    -0.0145 C.3     
  27 C27            1.1892     3.4736     0.0094 C.3     
  28 H28           -1.0957    -1.7819     0.0030 H       
  29 H29           -3.0892    -2.0334    -1.6210 H       
  30 H30           -5.2202    -3.2623    -1.5992 H       
  31 H31           -6.5630    -0.9091     1.6960 H       
  32 H32           -4.4359     0.3267     1.6929 H       
  33 H33           -4.3534     1.6352     0.0533 H       
  34 H34           -2.6370     3.9280    -0.5497 H       
  35 H35           -3.3205     3.2643     2.2093 H       
  36 H36           -2.4652     4.7186     1.6095 H       
  37 H37           -4.9190     5.1354     2.7542 H       
  38 H38           -5.2136     6.9392     1.0185 H       
  39 H39           -3.4500     6.6304     0.9900 H       
  40 H40           -5.3866     6.1503    -1.1412 H       
  41 H41           -3.6230     5.8415    -1.1697 H       
  42 H42           -5.2467     3.6412    -1.3362 H       
  43 H43           -5.8196     3.1215     1.2308 H       
  44 H44           -6.6138     4.6632     0.7312 H       
  45 H45            2.2478     0.2010    -0.0183 H       
  46 H46            3.0145     1.5382    -0.9085 H       
  47 H47            3.0315     1.5287     0.8714 H       
  48 H48            1.2003     3.8314     1.0389 H       
  49 H49            2.0755     3.8368    -0.5110 H       
  50 H50            0.2956     3.8426    -0.4940 H       
@<TRIPOS>BOND
   1    1    2 ar
   2    1   25 1
   3    1    6 ar
   4    2    3 ar
   5    3    4 ar
   6    3   28 1
   7    4    5 ar
   8    4    7 1
   9    5    6 ar
  10    5   17 1
  11    7    8 ar
  12    7   12 ar
  13    8    9 ar
  14    8   29 1
  15    9   10 ar
  16    9   30 1
  17   10   11 ar
  18   10   13 1
  19   11   12 ar
  20   11   31 1
  21   12   32 1
  22   13   14 1
  23   13   15 1
  24   13   16 1
  25   17   18 1
  26   17   33 1
  27   18   19 1
  28   18   23 1
  29   18   34 1
  30   19   20 1
  31   19   35 1
  32   19   36 1
  33   20   21 1
  34   20   24 1
  35   20   37 1
  36   21   22 1
  37   21   38 1
  38   21   39 1
  39   22   23 1
  40   22   40 1
  41   22   41 1
  42   23   24 1
  43   23   42 1
  44   24   43 1
  45   24   44 1
  46   25   26 1
  47   25   27 1
  48   26   45 1
  49   26   46 1
  50   26   47 1
  51   27   48 1
  52   27   49 1
  53   27   50 1

#	End of record

