#	Name: ASD09900024
#	Creating user name:	WinNT
#	Creation time:	15. 06. 2019 21:24

#	Modifying user name:	WinNT
#	Modification time:	15. 06. 2019 21:24

#	Program:	/corina/corina34_cracker 3.40 0067  02.08.2006

@<TRIPOS>MOLECULE
ASD09900024
  29   30    0    0    0
SMALL
NO_CHARGES


@<TRIPOS>ATOM
   1 C1            -0.0165     1.3619     0.0095 C.ar    
   2 C2             0.0021    -0.0041     0.0020 C.ar    
   3 C3             1.2095    -0.6951    -0.0132 C.ar    
   4 C4             2.4066    -0.0154    -0.0210 C.ar    
   5 C5             2.4127     1.3768    -0.0136 C.ar    
   6 C6             1.1898     2.0750     0.0018 C.ar    
   7 N7             3.4205     2.3133    -0.0182 N.pl3   
   8 C8             2.8560     3.5739    -0.0060 C.2     
   9 C9             1.5024     3.4559     0.0063 C.2     
  10 C10            3.6012     4.8417    -0.0059 C.2     
  11 O11            3.0012     5.8999     0.0055 O.2     
  12 N12            4.9488     4.8312    -0.0184 N.am    
  13 C13            5.6912     6.0942    -0.0182 C.3     
  14 C14            5.8545     6.5896     1.4201 C.3     
  15 C15            7.0710     5.8748    -0.6418 C.3     
  16 F16           -1.1620    -0.6897     0.0099 F       
  17 H17           -0.9581     1.8907     0.0169 H       
  18 H18            1.2076    -1.7751    -0.0186 H       
  19 H19            3.3387    -0.5608    -0.0325 H       
  20 H20            4.3710     2.1201    -0.0280 H       
  21 H21            0.7923     4.2695     0.0171 H       
  22 H22            5.4272     3.9874    -0.0274 H       
  23 H23            5.1442     6.8372    -0.5985 H       
  24 H24            6.4069     7.5293     1.4202 H       
  25 H25            4.8715     6.7459     1.8644 H       
  26 H26            6.4015     5.8466     2.0004 H       
  27 H27            6.9547     5.5218    -1.6665 H       
  28 H28            7.6234     6.8145    -0.6417 H       
  29 H29            7.6180     5.1317    -0.0615 H       
@<TRIPOS>BOND
   1    1    2 ar
   2    1    6 ar
   3    1   17 1
   4    2    3 ar
   5    2   16 1
   6    3    4 ar
   7    3   18 1
   8    4    5 ar
   9    4   19 1
  10    5    7 1
  11    5    6 ar
  12    6    9 1
  13    7    8 1
  14    7   20 1
  15    8    9 2
  16    8   10 1
  17    9   21 1
  18   10   11 2
  19   10   12 am
  20   12   13 1
  21   12   22 1
  22   13   14 1
  23   13   15 1
  24   13   23 1
  25   14   24 1
  26   14   25 1
  27   14   26 1
  28   15   27 1
  29   15   28 1
  30   15   29 1

#	End of record

