#	Name: ASD05790002
#	Creating user name:	WinNT
#	Creation time:	15. 06. 2019 21:03

#	Modifying user name:	WinNT
#	Modification time:	15. 06. 2019 21:03

#	Program:	/corina/corina34_cracker 3.40 0067  02.08.2006

@<TRIPOS>MOLECULE
ASD05790002
  49   52    0    0    0
SMALL
NO_CHARGES


@<TRIPOS>ATOM
   1 C1            -0.1753     1.4707    -0.5693 C.2     
   2 C2            -0.1532    -0.0033    -0.5732 C.ar    
   3 C3             0.9014    -0.6886    -1.1891 C.ar    
   4 C4             0.9166    -2.0686    -1.1889 C.ar    
   5 C5            -0.1118    -2.7757    -0.5797 C.ar    
   6 C6            -1.1606    -2.0979     0.0324 C.ar    
   7 C7            -1.1819    -0.7217     0.0431 C.ar    
   8 O8             0.7233     2.0937    -1.1017 O.2     
   9 N9            -1.1941     2.1279     0.0193 N.am    
  10 C10           -1.1619     3.5203     0.1191 C.ar    
  11 C11           -2.3411     4.2506     0.0191 C.ar    
  12 C12           -2.3127     5.6244     0.1171 C.ar    
  13 C13           -1.0979     6.2837     0.3177 C.ar    
  14 C14            0.0845     5.5473     0.4183 C.ar    
  15 C15            0.0486     4.1733     0.3241 C.ar    
  16 O16           -2.1300     8.5717     0.3426 O.3     
  17 C17           -1.0638     7.7569     0.4229 C.2     
  18 N18            0.0116     8.4837     0.6103 N.2     
  19 C19           -0.3498     9.7831     0.6534 C.2     
  20 C20           -1.6950     9.8388     0.4853 C.2     
  21 C21           -2.5434    11.0841     0.4629 C.3     
  22 F22           -2.6400    11.5590    -0.8495 F       
  23 F23           -3.8219    10.7862     0.9463 F       
  24 F24           -1.9557    12.0633     1.2710 F       
  25 C25            0.5584    10.9401     0.8497 C.ar    
  26 C26            1.6695    10.8236     1.6825 C.ar    
  27 C27            2.5111    11.9028     1.8611 C.ar    
  28 C28            2.2530    13.0986     1.2155 C.ar    
  29 C29            1.1513    13.2200     0.3880 C.ar    
  30 C30            0.3065    12.1454     0.1973 C.ar    
  31 O31           -0.0935    -4.1327    -0.5820 O.3     
  32 C32           -1.1821    -4.7973     0.0624 C.3     
  33 F33            1.9012    -0.0004    -1.7825 F       
  34 H34            1.7288    -2.5992    -1.6633 H       
  35 H35           -1.9581    -2.6527     0.5041 H       
  36 H36           -1.9951    -0.1974     0.5229 H       
  37 H37           -1.9498     1.6336     0.3736 H       
  38 H38           -3.2801     3.7401    -0.1361 H       
  39 H39           -3.2287     6.1910     0.0386 H       
  40 H40            1.0255     6.0542     0.5730 H       
  41 H41            0.9621     3.6030     0.4059 H       
  42 H42            1.8715     9.8906     2.1876 H       
  43 H43            3.3725    11.8135     2.5064 H       
  44 H44            2.9140    13.9407     1.3584 H       
  45 H45            0.9543    14.1561    -0.1133 H       
  46 H46           -0.5508    12.2398    -0.4528 H       
  47 H47           -1.2149    -4.5067     1.1124 H       
  48 H48           -2.1173    -4.5162    -0.4219 H       
  49 H49           -1.0444    -5.8760    -0.0119 H       
@<TRIPOS>BOND
   1    1    2 1
   2    1    8 2
   3    1    9 am
   4    2    3 ar
   5    2    7 ar
   6    3    4 ar
   7    3   33 1
   8    4    5 ar
   9    4   34 1
  10    5    6 ar
  11    5   31 1
  12    6    7 ar
  13    6   35 1
  14    7   36 1
  15    9   10 1
  16    9   37 1
  17   10   11 ar
  18   10   15 ar
  19   11   12 ar
  20   11   38 1
  21   12   13 ar
  22   12   39 1
  23   13   14 ar
  24   13   17 1
  25   14   15 ar
  26   14   40 1
  27   15   41 1
  28   16   17 1
  29   16   20 1
  30   17   18 2
  31   18   19 1
  32   19   20 2
  33   19   25 1
  34   20   21 1
  35   21   22 1
  36   21   23 1
  37   21   24 1
  38   25   26 ar
  39   25   30 ar
  40   26   27 ar
  41   26   42 1
  42   27   28 ar
  43   27   43 1
  44   28   29 ar
  45   28   44 1
  46   29   30 ar
  47   29   45 1
  48   30   46 1
  49   31   32 1
  50   32   47 1
  51   32   48 1
  52   32   49 1

#	End of record

