#	Name: ASD02039076
#	Creating user name:	WinNT
#	Creation time:	15. 06. 2019 20:17

#	Modifying user name:	WinNT
#	Modification time:	15. 06. 2019 20:17

#	Program:	/corina/corina34_cracker 3.40 0067  02.08.2006

@<TRIPOS>MOLECULE
ASD02039076
  41   44    0    0    0
SMALL
NO_CHARGES


@<TRIPOS>ATOM
   1 N1             0.0080     1.2795    -0.2527 N.2     
   2 N2             0.0402    -0.0017    -0.3649 N.2     
   3 C3             1.2315     1.7355    -0.1376 C.2     
   4 O4             2.0588     0.6747    -0.1818 O.3     
   5 C5             1.2744    -0.4111    -0.3263 C.2     
   6 N6             1.6033     3.0607     0.0028 N.pl3   
   7 C7             0.6405     4.0703    -0.0881 C.ar    
   8 C8             1.7418    -1.8404    -0.4248 C.3     
   9 O9             1.9715    -2.1730    -1.7954 O.3     
  10 C10            2.4004    -3.4357    -2.0607 C.ar    
  11 C11            2.6406    -3.8198    -3.3648 C.ar    
  12 C12            2.6008    -4.3334    -1.0150 C.ar    
  13 C13            3.0359    -5.6163    -1.2648 C.ar    
  14 C14            3.2788    -6.0254    -2.5715 C.ar    
  15 C15            3.0821    -5.1198    -3.6312 C.ar    
  16 C16            0.8116     5.2704     0.5898 C.ar    
  17 C17           -0.5020     3.8897    -0.8646 C.ar    
  18 C18           -1.4270     4.9188    -0.9231 C.ar    
  19 C19           -1.1886     6.0823    -0.2150 C.ar    
  20 N20           -0.0941     6.2244     0.5065 N.ar    
  21 N21            3.7146    -7.3067    -2.8426 N.am    
  22 C22            3.9497    -7.7047    -4.1050 C.2     
  23 C23            3.7633    -6.8369    -5.2022 C.2     
  24 C24            3.3412    -5.5639    -5.0021 C.2     
  25 O25            4.3338    -8.8438    -4.3071 O.2     
  26 C26           -2.1907     7.2064    -0.2739 C.3     
  27 F27           -3.1297     7.0482     0.7510 F       
  28 F28           -1.5296     8.4292    -0.1161 F       
  29 F29           -2.8430     7.1852    -1.5114 F       
  30 H30            2.5321     3.2894     0.1642 H       
  31 H31            2.6677    -1.9595     0.1380 H       
  32 H32            0.9789    -2.5013    -0.0134 H       
  33 H33            2.4883    -3.1210    -4.1741 H       
  34 H34            2.4136    -4.0206     0.0016 H       
  35 H35            3.1886    -6.3040    -0.4462 H       
  36 H36            1.6954     5.4232     1.1915 H       
  37 H37           -0.6623     2.9701    -1.4077 H       
  38 H38           -2.3240     4.8139    -1.5153 H       
  39 H39            3.8536    -7.9289    -2.1116 H       
  40 H40            3.9613    -7.1867    -6.2046 H       
  41 H41            3.1958    -4.8934    -5.8361 H       
@<TRIPOS>BOND
   1    1    2 1
   2    1    3 2
   3    2    5 2
   4    3    4 1
   5    3    6 1
   6    4    5 1
   7    5    8 1
   8    6    7 1
   9    6   30 1
  10    7   16 ar
  11    7   17 ar
  12    8    9 1
  13    8   31 1
  14    8   32 1
  15    9   10 1
  16   10   11 ar
  17   10   12 ar
  18   11   15 ar
  19   11   33 1
  20   12   13 ar
  21   12   34 1
  22   13   14 ar
  23   13   35 1
  24   14   15 ar
  25   14   21 1
  26   15   24 1
  27   16   20 ar
  28   16   36 1
  29   17   18 ar
  30   17   37 1
  31   18   19 ar
  32   18   38 1
  33   19   20 ar
  34   19   26 1
  35   21   22 am
  36   21   39 1
  37   22   23 1
  38   22   25 2
  39   23   24 2
  40   23   40 1
  41   24   41 1
  42   26   27 1
  43   26   28 1
  44   26   29 1

#	End of record

