#	Name: ASD03731768
#	Creating user name:	WinNT
#	Creation time:	15. 06. 2019 20:46

#	Modifying user name:	WinNT
#	Modification time:	15. 06. 2019 20:46

#	Program:	/corina/corina34_cracker 3.40 0067  02.08.2006

@<TRIPOS>MOLECULE
ASD03731768
  37   38    0    0    0
SMALL
NO_CHARGES


@<TRIPOS>ATOM
   1 C1            -0.7921     1.3870     0.4286 C.2     
   2 C2            -0.5688    -0.0641     0.3098 C.ar    
   3 C3             0.5842    -0.5497    -0.3260 C.ar    
   4 C4             0.7862    -1.9146    -0.4335 C.ar    
   5 C5            -0.1490    -2.7980     0.0863 C.ar    
   6 C6            -1.2928    -2.3178     0.7171 C.ar    
   7 C7            -1.5019    -0.9632     0.8351 C.ar    
   8 O8             0.0235     2.1670    -0.0248 O.2     
   9 N9            -1.9030     1.8505     1.0349 N.am    
  10 S10           -2.1541     3.4819     1.1685 S.o2    
  11 O11           -3.3848     3.5907     1.8703 O.2     
  12 O12           -0.9455     3.9778     1.7276 O.2     
  13 C13           -2.3447     4.0522    -0.5430 C.3     
  14 O14            1.4971     0.3157    -0.8340 O.3     
  15 C15            2.6460    -0.2511    -1.4672 C.3     
  16 O16            0.0522    -4.1357    -0.0212 O.3     
  17 C17           -0.4591    -4.7725    -1.1075 C.ar    
  18 C18           -1.0676    -4.0422    -2.1180 C.ar    
  19 C19           -1.5873    -4.6925    -3.2226 C.ar    
  20 C20           -1.4998    -6.0725    -3.3191 C.ar    
  21 C21           -0.8932    -6.8005    -2.3118 C.ar    
  22 C22           -0.3680    -6.1531    -1.2097 C.ar    
  23 F23           -2.1805    -3.9827    -4.2073 F       
  24 Cl24          -2.1529    -6.8879    -4.7056 Cl      
  25 H25            1.6721    -2.2923    -0.9224 H       
  26 H26           -2.0166    -3.0111     1.1194 H       
  27 H27           -2.3886    -0.5944     1.3293 H       
  28 H28           -2.5555     1.2284     1.3929 H       
  29 H29           -3.1939     3.5460    -1.0021 H       
  30 H30           -2.5160     5.1286    -0.5503 H       
  31 H31           -1.4389     3.8245    -1.1049 H       
  32 H32            3.2933     0.5482    -1.8280 H       
  33 H33            3.1911    -0.8641    -0.7495 H       
  34 H34            2.3298    -0.8696    -2.3072 H       
  35 H35           -1.1357    -2.9670    -2.0420 H       
  36 H36           -0.8259    -7.8756    -2.3886 H       
  37 H37            0.1095    -6.7223    -0.4259 H       
@<TRIPOS>BOND
   1    1    2 1
   2    1    8 2
   3    1    9 am
   4    2    3 ar
   5    2    7 ar
   6    3    4 ar
   7    3   14 1
   8    4    5 ar
   9    4   25 1
  10    5    6 ar
  11    5   16 1
  12    6    7 ar
  13    6   26 1
  14    7   27 1
  15    9   10 am
  16    9   28 1
  17   10   11 2
  18   10   12 2
  19   10   13 1
  20   13   29 1
  21   13   30 1
  22   13   31 1
  23   14   15 1
  24   15   32 1
  25   15   33 1
  26   15   34 1
  27   16   17 1
  28   17   18 ar
  29   17   22 ar
  30   18   19 ar
  31   18   35 1
  32   19   20 ar
  33   19   23 1
  34   20   21 ar
  35   20   24 1
  36   21   22 ar
  37   21   36 1
  38   22   37 1

#	End of record

