#	Name: ASD03082057
#	Creating user name:	WinNT
#	Creation time:	15. 06. 2019 20:27

#	Modifying user name:	WinNT
#	Modification time:	15. 06. 2019 20:27

#	Program:	/corina/corina34_cracker 3.40 0067  02.08.2006

@<TRIPOS>MOLECULE
ASD03082057
  65   68    0    0    0
SMALL
NO_CHARGES


@<TRIPOS>ATOM
   1 C1            -0.0187     1.5261     0.0104 C.3     
   2 C2             0.0021    -0.0041     0.0020 C.3     
   3 N3             0.7064    -0.4787    -1.1959 N.3     
   4 C4             2.1034    -0.0262    -1.2048 C.3     
   5 C5             2.1454     1.5033    -1.2324 C.3     
   6 C6             1.4196     2.0513    -0.0005 C.3     
   7 C7             0.6260    -1.9412    -1.3090 C.3     
   8 C8            -0.8267    -2.3547    -1.5531 C.3     
   9 C9            -0.9104    -3.8779    -1.6709 C.3     
  10 C10           -2.3412    -4.2852    -1.9113 C.ar    
  11 C11           -2.8223    -4.3903    -3.2030 C.ar    
  12 C12           -4.1348    -4.7639    -3.4235 C.ar    
  13 C13           -4.9661    -5.0329    -2.3523 C.ar    
  14 C14           -4.4848    -4.9287    -1.0607 C.ar    
  15 C15           -3.1711    -4.5593    -0.8403 C.ar    
  16 C16            3.6009     1.9747    -1.2194 C.3     
  17 O17            3.6433     3.4188    -1.3648 O.3     
  18 C18            4.8602     3.9974    -1.3728 C.2     
  19 O19            5.8586     3.3139    -1.2613 O.2     
  20 C20            4.9803     5.4598    -1.5168 C.ar    
  21 C21            3.8353     6.2495    -1.6452 C.ar    
  22 C22            3.9544     7.6162    -1.7795 C.ar    
  23 C23            5.2049     8.2116    -1.7879 C.ar    
  24 C24            6.3457     7.4434    -1.6618 C.ar    
  25 C25            6.2449     6.0671    -1.5199 C.ar    
  26 N26            7.3972     5.2888    -1.3923 N.am    
  27 C27            7.9513     5.0035    -0.2074 C.2     
  28 C28            9.1790     4.1463    -0.4255 C.3     
  29 C29            9.2389     3.9838    -1.9580 C.3     
  30 C30            8.0356     4.7617    -2.4444 C.2     
  31 C31           10.4314     4.8582     0.0899 C.3     
  32 O32            7.5357     5.3737     0.8694 O.2     
  33 O33            7.7060     4.8928    -3.6036 O.2     
  34 H34           -0.5449     1.8878    -0.8730 H       
  35 H35           -0.5279     1.8782     0.9076 H       
  36 H36            0.5163    -0.3652     0.8927 H       
  37 H37           -1.0206    -0.3811    -0.0047 H       
  38 H38            2.6078    -0.3873    -0.3085 H       
  39 H39            2.6069    -0.4194    -2.0879 H       
  40 H40            1.6532     1.8646    -2.1353 H       
  41 H41            1.4094     3.1406    -0.0383 H       
  42 H42            1.9345     1.7220     0.9021 H       
  43 H43            1.2439    -2.2756    -2.1424 H       
  44 H44            0.9834    -2.3972    -0.3858 H       
  45 H45           -1.4446    -2.0203    -0.7198 H       
  46 H46           -1.1841    -1.8987    -2.4764 H       
  47 H47           -0.2925    -4.2123    -2.5043 H       
  48 H48           -0.5530    -4.3339    -0.7477 H       
  49 H49           -2.1728    -4.1801    -4.0399 H       
  50 H50           -4.5108    -4.8453    -4.4326 H       
  51 H51           -5.9918    -5.3241    -2.5246 H       
  52 H52           -5.1344    -5.1385    -0.2238 H       
  53 H53           -2.7951    -4.4779     0.1689 H       
  54 H54            4.0664     1.6907    -0.2756 H       
  55 H55            4.1405     1.5104    -2.0449 H       
  56 H56            2.8580     5.7898    -1.6396 H       
  57 H57            3.0684     8.2257    -1.8791 H       
  58 H58            5.2885     9.2831    -1.8940 H       
  59 H59            7.3172     7.9151    -1.6692 H       
  60 H60            9.0609     3.1769     0.0587 H       
  61 H61           10.1609     4.4102    -2.3532 H       
  62 H62            9.1506     2.9336    -2.2362 H       
  63 H63           10.3348     5.0331     1.1615 H       
  64 H64           11.3065     4.2366    -0.0994 H       
  65 H65           10.5449     5.8121    -0.4251 H       
@<TRIPOS>BOND
   1    1    2 1
   2    1    6 1
   3    1   34 1
   4    1   35 1
   5    2    3 1
   6    2   36 1
   7    2   37 1
   8    3    4 1
   9    3    7 1
  10    4    5 1
  11    4   38 1
  12    4   39 1
  13    5    6 1
  14    5   16 1
  15    5   40 1
  16    6   41 1
  17    6   42 1
  18    7    8 1
  19    7   43 1
  20    7   44 1
  21    8    9 1
  22    8   45 1
  23    8   46 1
  24    9   10 1
  25    9   47 1
  26    9   48 1
  27   10   11 ar
  28   10   15 ar
  29   11   12 ar
  30   11   49 1
  31   12   13 ar
  32   12   50 1
  33   13   14 ar
  34   13   51 1
  35   14   15 ar
  36   14   52 1
  37   15   53 1
  38   16   17 1
  39   16   54 1
  40   16   55 1
  41   17   18 1
  42   18   19 2
  43   18   20 1
  44   20   21 ar
  45   20   25 ar
  46   21   22 ar
  47   21   56 1
  48   22   23 ar
  49   22   57 1
  50   23   24 ar
  51   23   58 1
  52   24   25 ar
  53   24   59 1
  54   25   26 1
  55   26   27 am
  56   26   30 am
  57   27   28 1
  58   27   32 2
  59   28   29 1
  60   28   31 1
  61   28   60 1
  62   29   30 1
  63   29   61 1
  64   29   62 1
  65   30   33 2
  66   31   63 1
  67   31   64 1
  68   31   65 1

#	End of record

