#	Name: ASD04230044
#	Creating user name:	WinNT
#	Creation time:	15. 06. 2019 20:48

#	Modifying user name:	WinNT
#	Modification time:	15. 06. 2019 20:48

#	Program:	/corina/corina34_cracker 3.40 0067  02.08.2006

@<TRIPOS>MOLECULE
ASD04230044
  29   31    0    0    0
SMALL
NO_CHARGES


@<TRIPOS>ATOM
   1 N1            -0.0169     1.3927     0.0097 N.pl3   
   2 C2             0.0021    -0.0041     0.0020 C.ar    
   3 C3             1.2125    -0.6815    -0.0132 C.ar    
   4 C4             1.2262    -2.0736    -0.0208 C.ar    
   5 C5             0.0236    -2.7790    -0.0132 C.ar    
   6 C6            -1.1768    -2.0976     0.0019 C.ar    
   7 C7            -1.1916    -0.7155     0.0153 C.ar    
   8 N8             4.8836    -2.7156    -0.0601 N.ar    
   9 C9             3.7301    -2.0975    -0.0458 C.ar    
  10 C10            2.5171    -2.8047    -0.0376 C.ar    
  11 C11            2.5344    -4.1912    -0.0448 C.ar    
  12 C12            3.7841    -4.8353    -0.0602 C.ar    
  13 C13            3.8813    -6.2367    -0.0687 C.ar    
  14 C14            5.1087    -6.8262    -0.0841 C.ar    
  15 C15            6.2702    -6.0571    -0.0911 C.ar    
  16 C16            6.2127    -4.6970    -0.0832 C.ar    
  17 C17            4.9648    -4.0507    -0.0677 C.ar    
  18 H18            0.8165     1.8891     0.0044 H       
  19 H19           -0.8634     1.8662     0.0163 H       
  20 H20            2.1414    -0.1307    -0.0194 H       
  21 H21            0.0312    -3.8589    -0.0195 H       
  22 H22           -2.1071    -2.6460     0.0078 H       
  23 H23           -2.1334    -0.1872     0.0320 H       
  24 H24            3.7108    -1.0177    -0.0397 H       
  25 H25            1.6158    -4.7591    -0.0384 H       
  26 H26            2.9876    -6.8431    -0.0626 H       
  27 H27            5.1826    -7.9036    -0.0906 H       
  28 H28            7.2321    -6.5479    -0.1027 H       
  29 H29            7.1233    -4.1163    -0.0889 H       
@<TRIPOS>BOND
   1    1    2 1
   2    1   18 1
   3    1   19 1
   4    2    3 ar
   5    2    7 ar
   6    3    4 ar
   7    3   20 1
   8    4    5 ar
   9    4   10 1
  10    5    6 ar
  11    5   21 1
  12    6    7 ar
  13    6   22 1
  14    7   23 1
  15    8    9 ar
  16    8   17 ar
  17    9   10 ar
  18    9   24 1
  19   10   11 ar
  20   11   12 ar
  21   11   25 1
  22   12   13 ar
  23   12   17 ar
  24   13   14 ar
  25   13   26 1
  26   14   15 ar
  27   14   27 1
  28   15   16 ar
  29   15   28 1
  30   16   17 ar
  31   16   29 1

#	End of record

