#	Name: ASD07330032
#	Creating user name:	WinNT
#	Creation time:	15. 06. 2019 21:11

#	Modifying user name:	WinNT
#	Modification time:	15. 06. 2019 21:11

#	Program:	/corina/corina34_cracker 3.40 0067  02.08.2006

@<TRIPOS>MOLECULE
ASD07330032
  72   75    0    0    0
SMALL
NO_CHARGES


@<TRIPOS>ATOM
   1 C1             1.1210    -1.4643     0.7240 C.ar    
   2 C2             0.6546    -2.2846    -0.3045 C.ar    
   3 N3            -0.5995    -2.6852    -0.3242 N.ar    
   4 C4            -1.4585    -2.3296     0.6214 C.ar    
   5 C5            -1.0615    -1.5121     1.6792 C.ar    
   6 C6             0.2357    -1.0770     1.7414 C.ar    
   7 N7            -2.7682    -2.7760     0.5573 N.3     
   8 C8            -2.8305    -4.1553     0.0542 C.3     
   9 C9            -4.2829    -4.6375     0.0737 C.3     
  10 N10           -5.1050    -3.7413    -0.7514 N.3     
  11 C11           -5.0426    -2.3620    -0.2483 C.3     
  12 C12           -3.5902    -1.8798    -0.2678 C.3     
  13 C13            2.5265    -1.0159     0.7443 C.2     
  14 N14            3.3701    -1.3982    -0.2349 N.am    
  15 O15            2.9238    -0.3014     1.6443 O.2     
  16 C16            4.7656    -0.9529    -0.2147 C.3     
  17 C17            5.5006    -1.5236    -1.4293 C.3     
  18 Cl18          -2.1988    -1.0560     2.9089 Cl      
  19 C19           -6.4939    -4.2147    -0.8194 C.3     
  20 C20           -4.3565    -6.0589    -0.4877 C.3     
  21 C21           -3.5549    -7.0038     0.4098 C.3     
  22 C22           -7.1568    -4.0544     0.5516 C.3     
  23 C23           -8.6204    -4.4920     0.4594 C.3     
  24 N24           -9.3161    -3.6708    -0.5396 N.3     
  25 C25           -8.7269    -3.8446    -1.8733 C.3     
  26 C26           -7.2665    -3.3878    -1.8508 C.3     
  27 C27          -10.7545    -3.9687    -0.5565 C.3     
  28 C28          -11.3392    -3.7000     0.8061 C.ar    
  29 C29          -11.0253    -2.5313     1.4745 C.ar    
  30 C30          -11.5613    -2.2843     2.7243 C.ar    
  31 C31          -12.4122    -3.2069     3.3064 C.ar    
  32 C32          -12.7260    -4.3763     2.6370 C.ar    
  33 C33          -12.1939    -4.6196     1.3849 C.ar    
  34 Cl34         -13.0854    -2.8976     4.8764 Cl      
  35 C35          -11.4469    -3.0811    -1.5927 C.3     
  36 H36            1.3277    -2.5930    -1.0907 H       
  37 H37            0.5676    -0.4434     2.5507 H       
  38 H38           -2.4503    -4.1875    -0.9669 H       
  39 H39           -2.2242    -4.8016     0.6888 H       
  40 H40           -4.6545    -4.6311     1.0984 H       
  41 H41           -5.6489    -1.7157    -0.8830 H       
  42 H42           -5.4228    -2.3298     0.7727 H       
  43 H43           -3.5378    -0.8672     0.1321 H       
  44 H44           -3.2187    -1.8861    -1.2925 H       
  45 H45            3.0531    -1.9682    -0.9529 H       
  46 H46            4.8000     0.1360    -0.2478 H       
  47 H47            5.2459    -1.3041     0.6986 H       
  48 H48            6.5389    -1.1923    -1.4143 H       
  49 H49            5.4661    -2.6125    -1.3962 H       
  50 H50            5.0203    -1.1724    -2.3426 H       
  51 H51           -6.5070    -5.2652    -1.1097 H       
  52 H52           -5.3965    -6.3835    -0.5198 H       
  53 H53           -3.9399    -6.0738    -1.4948 H       
  54 H54           -3.9828    -7.0030     1.4123 H       
  55 H55           -3.5919    -8.0130    -0.0003 H       
  56 H56           -2.5188    -6.6684     0.4568 H       
  57 H57           -6.6369    -4.6745     1.2819 H       
  58 H58           -7.1079    -3.0100     0.8596 H       
  59 H59           -8.6682    -5.5403     0.1648 H       
  60 H60           -9.0990    -4.3656     1.4305 H       
  61 H61           -8.7742    -4.8960    -2.1570 H       
  62 H62           -9.2829    -3.2481    -2.5966 H       
  63 H63           -7.2193    -2.3328    -1.5806 H       
  64 H64           -6.8250    -3.5315    -2.8370 H       
  65 H65          -10.9055    -5.0164    -0.8165 H       
  66 H66          -10.3608    -1.8113     1.0202 H       
  67 H67          -11.3157    -1.3714     3.2465 H       
  68 H68          -13.3902    -5.0969     3.0910 H       
  69 H69          -12.4388    -5.5324     0.8622 H       
  70 H70          -11.0240    -3.2755    -2.5783 H       
  71 H71          -12.5142    -3.3021    -1.6053 H       
  72 H72          -11.2959    -2.0334    -1.3327 H       
@<TRIPOS>BOND
   1    1    2 ar
   2    1   13 1
   3    1    6 ar
   4    2    3 ar
   5    2   36 1
   6    3    4 ar
   7    4    5 ar
   8    4    7 1
   9    5    6 ar
  10    5   18 1
  11    6   37 1
  12    7    8 1
  13    7   12 1
  14    8    9 1
  15    8   38 1
  16    8   39 1
  17    9   10 1
  18    9   20 1
  19    9   40 1
  20   10   11 1
  21   10   19 1
  22   11   12 1
  23   11   41 1
  24   11   42 1
  25   12   43 1
  26   12   44 1
  27   13   14 am
  28   13   15 2
  29   14   16 1
  30   14   45 1
  31   16   17 1
  32   16   46 1
  33   16   47 1
  34   17   48 1
  35   17   49 1
  36   17   50 1
  37   19   22 1
  38   19   26 1
  39   19   51 1
  40   20   21 1
  41   20   52 1
  42   20   53 1
  43   21   54 1
  44   21   55 1
  45   21   56 1
  46   22   23 1
  47   22   57 1
  48   22   58 1
  49   23   24 1
  50   23   59 1
  51   23   60 1
  52   24   25 1
  53   24   27 1
  54   25   26 1
  55   25   61 1
  56   25   62 1
  57   26   63 1
  58   26   64 1
  59   27   28 1
  60   27   35 1
  61   27   65 1
  62   28   29 ar
  63   28   33 ar
  64   29   30 ar
  65   29   66 1
  66   30   31 ar
  67   30   67 1
  68   31   32 ar
  69   31   34 1
  70   32   33 ar
  71   32   68 1
  72   33   69 1
  73   35   70 1
  74   35   71 1
  75   35   72 1

#	End of record

