#	Name: ASD03730177
#	Creating user name:	WinNT
#	Creation time:	15. 06. 2019 20:44

#	Modifying user name:	WinNT
#	Modification time:	15. 06. 2019 20:44

#	Program:	/corina/corina34_cracker 3.40 0067  02.08.2006

@<TRIPOS>MOLECULE
ASD03730177
  41   44    0    0    0
SMALL
NO_CHARGES


@<TRIPOS>ATOM
   1 C1            -0.0184     1.5028     0.0103 C.2     
   2 C2             0.0021    -0.0041     0.0020 C.3     
   3 O3             1.0197     2.1211     0.0037 O.2     
   4 O4            -1.1898     2.1580     0.0194 O.3     
   5 O5             5.6630    -1.2137     1.3835 O.3     
   6 C6             4.5875    -0.2790     1.1732 C.3     
   7 C7             3.4664    -1.1771     0.6322 C.3     
   8 C8             3.8255    -2.5371     1.1677 C.ar    
   9 C9             5.1463    -2.4564     1.6003 C.ar    
  10 C10            5.7405    -3.5813     2.1639 C.ar    
  11 C11            5.0315    -4.7611     2.2803 C.ar    
  12 C12            3.7199    -4.8336     1.8365 C.ar    
  13 C13            3.1208    -3.7161     1.2804 C.ar    
  14 N14            1.3897    -0.4735    -0.0138 N.am    
  15 C15            2.1130    -0.7211     1.0965 C.2     
  16 C16            3.4022    -1.1516    -0.8660 C.ar    
  17 C17            4.3040    -1.4531    -1.8622 C.ar    
  18 C18            3.9379    -1.3254    -3.1902 C.ar    
  19 C19            2.6644    -0.8946    -3.5148 C.ar    
  20 C20            1.7573    -0.5920    -2.5208 C.ar    
  21 C21            2.1174    -0.7167    -1.1811 C.ar    
  22 O22            1.7430    -0.5999     2.2452 O.2     
  23 F23            5.6180    -5.8480     2.8279 F       
  24 F24            3.0295    -5.9897     1.9462 F       
  25 C25           -1.1335     3.6089     0.0270 C.3     
  26 C26           -2.5551     4.1744     0.0369 C.3     
  27 H27           -0.4983    -0.3791     0.8948 H       
  28 H28           -0.5153    -0.3696    -0.8850 H       
  29 H29            4.2906     0.1870     2.1128 H       
  30 H30            4.8682     0.4749     0.4378 H       
  31 H31            6.7617    -3.5318     2.5120 H       
  32 H32            2.0991    -3.7684     0.9342 H       
  33 H33            5.2980    -1.7891    -1.6065 H       
  34 H34            4.6450    -1.5613    -3.9717 H       
  35 H35            2.3786    -0.7952    -4.5515 H       
  36 H36            0.7649    -0.2556    -2.7821 H       
  37 H37           -0.6017     3.9472     0.9164 H       
  38 H38           -0.6102     3.9569    -0.8636 H       
  39 H39           -3.0869     3.8361    -0.8525 H       
  40 H40           -3.0784     3.8265     0.9275 H       
  41 H41           -2.5128     5.2636     0.0426 H       
@<TRIPOS>BOND
   1    1    2 1
   2    1    3 2
   3    1    4 1
   4    2   14 1
   5    2   27 1
   6    2   28 1
   7    4   25 1
   8    5    6 1
   9    5    9 1
  10    6    7 1
  11    6   29 1
  12    6   30 1
  13    7    8 1
  14    7   15 1
  15    7   16 1
  16    8    9 ar
  17    8   13 ar
  18    9   10 ar
  19   10   11 ar
  20   10   31 1
  21   11   12 ar
  22   11   23 1
  23   12   13 ar
  24   12   24 1
  25   13   32 1
  26   14   15 am
  27   14   21 1
  28   15   22 2
  29   16   17 ar
  30   16   21 ar
  31   17   18 ar
  32   17   33 1
  33   18   19 ar
  34   18   34 1
  35   19   20 ar
  36   19   35 1
  37   20   21 ar
  38   20   36 1
  39   25   26 1
  40   25   37 1
  41   25   38 1
  42   26   39 1
  43   26   40 1
  44   26   41 1

#	End of record

