#	Name: ASD01913806
#	Creating user name:	WinNT
#	Creation time:	15. 06. 2019 20:02

#	Modifying user name:	WinNT
#	Modification time:	15. 06. 2019 20:02

#	Program:	/corina/corina34_cracker 3.40 0067  02.08.2006

@<TRIPOS>MOLECULE
ASD01913806
  38   40    0    0    0
SMALL
NO_CHARGES


@<TRIPOS>ATOM
   1 C1            -0.0229     1.4277    -0.0308 C.ar    
   2 C2            -0.0019    -0.0041    -0.0265 C.1     
   3 C3             0.0153    -1.1780    -0.0231 C.1     
   4 C4             0.0364    -2.6098    -0.0189 C.ar    
   5 C5            -1.1343    -3.3384     0.2393 C.ar    
   6 C6             0.1560    -5.3344    -0.0290 C.ar    
   7 N7             1.2432    -4.6188    -0.2745 N.ar    
   8 C8             1.2214    -3.3021    -0.2774 C.ar    
   9 C9            -1.0636    -4.7171     0.2319 C.ar    
  10 N10            0.2331    -6.7252    -0.0385 N.am    
  11 C11           -0.8122    -7.5637    -0.0338 C.2     
  12 O12           -0.4687    -8.8566    -0.0452 O.3     
  13 C13            0.9835    -8.9734    -0.0596 C.3     
  14 C14            1.4751    -7.5130    -0.0616 C.3     
  15 C15            1.4750    -9.7086     1.1889 C.3     
  16 C16            1.4511    -9.6929    -1.3264 C.3     
  17 O17           -1.9664    -7.1844    -0.0205 O.2     
  18 C18            1.1479     2.1459    -0.2889 C.ar    
  19 C19            1.1212     3.5244    -0.2915 C.ar    
  20 C20           -0.0635     4.1979    -0.0384 C.ar    
  21 C21           -1.2280     3.4914     0.2183 C.ar    
  22 C22           -1.2156     2.1127     0.2175 C.ar    
  23 F23           -0.0832     5.5488    -0.0415 F       
  24 H24           -2.0678    -2.8333     0.4392 H       
  25 H25            2.1283    -2.7525    -0.4820 H       
  26 H26           -1.9449    -5.3100     0.4269 H       
  27 H27            2.0510    -7.3040    -0.9631 H       
  28 H28            2.0686    -7.3076     0.8293 H       
  29 H29            1.0604   -10.7166     1.2037 H       
  30 H30            2.5635    -9.7636     1.1733 H       
  31 H31            1.1511    -9.1694     2.0791 H       
  32 H32            1.1105    -9.1426    -2.2035 H       
  33 H33            2.5397    -9.7479    -1.3321 H       
  34 H34            1.0363   -10.7006    -1.3459 H       
  35 H35            2.0717     1.6222    -0.4856 H       
  36 H36            2.0253     4.0805    -0.4909 H       
  37 H37           -2.1479     4.0218     0.4151 H       
  38 H38           -2.1235     1.5632     0.4176 H       
@<TRIPOS>BOND
   1    1    2 1
   2    1   18 ar
   3    1   22 ar
   4    2    3 3
   5    3    4 1
   6    4    5 ar
   7    4    8 ar
   8    5    9 ar
   9    5   24 1
  10    6    7 ar
  11    6   10 1
  12    6    9 ar
  13    7    8 ar
  14    8   25 1
  15    9   26 1
  16   10   11 am
  17   10   14 1
  18   11   12 1
  19   11   17 2
  20   12   13 1
  21   13   14 1
  22   13   15 1
  23   13   16 1
  24   14   27 1
  25   14   28 1
  26   15   29 1
  27   15   30 1
  28   15   31 1
  29   16   32 1
  30   16   33 1
  31   16   34 1
  32   18   19 ar
  33   18   35 1
  34   19   20 ar
  35   19   36 1
  36   20   21 ar
  37   20   23 1
  38   21   22 ar
  39   21   37 1
  40   22   38 1

#	End of record

