#	Name: ASD04880370
#	Creating user name:	WinNT
#	Creation time:	15. 06. 2019 20:53

#	Modifying user name:	WinNT
#	Modification time:	15. 06. 2019 20:53

#	Program:	/corina/corina34_cracker 3.40 0067  02.08.2006

@<TRIPOS>MOLECULE
ASD04880370
  47   51    0    0    0
SMALL
NO_CHARGES


@<TRIPOS>ATOM
   1 C1            -1.3957     2.4396     0.5619 C.ar    
   2 C2            -1.0612     1.0928     0.6286 C.ar    
   3 C3            -2.0426     0.1312     0.5253 C.ar    
   4 C4            -3.3761     0.5123     0.3537 C.ar    
   5 C5            -3.7080     1.8683     0.2877 C.ar    
   6 C6            -2.7207     2.8232     0.3972 C.ar    
   7 C7            -4.4295    -0.5128     0.2422 C.2     
   8 N8            -4.2361    -1.7859     0.2896 N.2     
   9 N9            -5.3983    -2.5434     0.1596 N.am    
  10 C10           -6.5440    -1.6336     0.0010 C.3     
  11 C11           -5.9042    -0.2324     0.0610 C.3     
  12 C12           -5.4627    -3.8895     0.1764 C.2     
  13 O13           -6.5435    -4.4470     0.1568 O.2     
  14 C14           -4.2219    -4.6870     0.2187 C.ar    
  15 C15           -4.2851    -6.0724     0.3890 C.ar    
  16 C16           -2.9808    -4.0594     0.0827 C.ar    
  17 C17           -1.8217    -4.8095     0.1228 C.ar    
  18 C18           -1.8915    -6.1921     0.2987 C.ar    
  19 C19           -3.1256    -6.8153     0.4281 C.ar    
  20 O20           -0.4249     3.3842     0.6638 O.3     
  21 C21            0.4928     3.4661    -0.3349 C.ar    
  22 C22            0.3550     2.6820    -1.4714 C.ar    
  23 C23            1.2892     2.7675    -2.4854 C.ar    
  24 C24            2.3610     3.6331    -2.3685 C.ar    
  25 C25            2.5007     4.4156    -1.2370 C.ar    
  26 C26            1.5663     4.3381    -0.2226 C.ar    
  27 O27           -0.5087    -4.4499     0.0172 O.3     
  28 C28            0.2377    -5.5654     0.5382 C.3     
  29 O29           -0.6238    -6.6945     0.3022 O.3     
  30 H30           -0.0304     0.7992     0.7612 H       
  31 H31           -1.7816    -0.9156     0.5764 H       
  32 H32           -4.7373     2.1673     0.1548 H       
  33 H33           -2.9763     3.8713     0.3466 H       
  34 H34           -7.0323    -1.7957    -0.9599 H       
  35 H35           -7.2526    -1.7629     0.8191 H       
  36 H36           -6.2985     0.3321     0.9060 H       
  37 H37           -6.0735     0.3055    -0.8718 H       
  38 H38           -5.2430    -6.5608     0.4904 H       
  39 H39           -2.9280    -2.9893    -0.0538 H       
  40 H40           -3.1765    -7.8854     0.5646 H       
  41 H41           -0.4816     2.0051    -1.5629 H       
  42 H42            1.1824     2.1574    -3.3702 H       
  43 H43            3.0907     3.6980    -3.1621 H       
  44 H44            3.3390     5.0907    -1.1480 H       
  45 H45            1.6758     4.9495     0.6610 H       
  46 H46            1.1780    -5.6820    -0.0005 H       
  47 H47            0.4198    -5.4393     1.6055 H       
@<TRIPOS>BOND
   1    1    2 ar
   2    1   20 1
   3    1    6 ar
   4    2    3 ar
   5    2   30 1
   6    3    4 ar
   7    3   31 1
   8    4    5 ar
   9    4    7 1
  10    5    6 ar
  11    5   32 1
  12    6   33 1
  13    7    8 2
  14    7   11 1
  15    8    9 1
  16    9   10 1
  17    9   12 am
  18   10   11 1
  19   10   34 1
  20   10   35 1
  21   11   36 1
  22   11   37 1
  23   12   13 2
  24   12   14 1
  25   14   15 ar
  26   14   16 ar
  27   15   19 ar
  28   15   38 1
  29   16   17 ar
  30   16   39 1
  31   17   18 ar
  32   17   27 1
  33   18   19 ar
  34   18   29 1
  35   19   40 1
  36   20   21 1
  37   21   22 ar
  38   21   26 ar
  39   22   23 ar
  40   22   41 1
  41   23   24 ar
  42   23   42 1
  43   24   25 ar
  44   24   43 1
  45   25   26 ar
  46   25   44 1
  47   26   45 1
  48   27   28 1
  49   28   29 1
  50   28   46 1
  51   28   47 1

#	End of record

