#	Name: ASD01141126
#	Creating user name:	WinNT
#	Creation time:	15. 06. 2019 19:01

#	Modifying user name:	WinNT
#	Modification time:	15. 06. 2019 19:01

#	Program:	/corina/corina34_cracker 3.40 0067  02.08.2006

@<TRIPOS>MOLECULE
ASD01141126
  38   39    0    0    0
SMALL
NO_CHARGES


@<TRIPOS>ATOM
   1 C1            -0.0169     1.3942     0.0097 C.ar    
   2 C2             0.0021    -0.0041     0.0020 C.ar    
   3 C3             1.2209    -0.6775    -0.0132 C.ar    
   4 C4             2.4025     0.0366    -0.0207 C.ar    
   5 C5             2.3805     1.4197    -0.0130 C.ar    
   6 C6             1.1761     2.0982     0.0021 C.ar    
   7 O7            -1.2012     2.0599     0.0189 O.3     
   8 C8             3.7208    -0.6933    -0.0367 C.3     
   9 C9             4.1470    -0.9294    -1.4628 C.2     
  10 C10            5.3211    -0.5173    -1.8723 C.2     
  11 C11           -1.2702    -0.7664     0.0106 C.ar    
  12 C12           -2.2587    -0.4651     0.9463 C.ar    
  13 C13           -3.4407    -1.1753     0.9514 C.ar    
  14 C14           -3.6468    -2.1896     0.0259 C.ar    
  15 C15           -2.6645    -2.4919    -0.9070 C.ar    
  16 C16           -1.4822    -1.7815    -0.9206 C.ar    
  17 C17           -4.5096    -0.8506     1.9629 C.3     
  18 C18           -5.5687     0.0052     1.3173 C.2     
  19 C19           -6.8236    -0.3692     1.3507 C.2     
  20 O20           -4.8125    -2.8880     0.0337 O.3     
  21 H21            1.2419    -1.7573    -0.0189 H       
  22 H22            3.3085     1.9721    -0.0186 H       
  23 H23            1.1653     3.1781     0.0080 H       
  24 H24           -1.5399     2.2478     0.9050 H       
  25 H25            4.4745    -0.0933     0.4731 H       
  26 H26            3.6124    -1.6505     0.4734 H       
  27 H27            3.4845    -1.4385    -2.1471 H       
  28 H28            5.6265    -0.6865    -2.8943 H       
  29 H29            5.9836    -0.0083    -1.1880 H       
  30 H30           -2.0988     0.3235     1.6667 H       
  31 H31           -2.8278    -3.2814    -1.6256 H       
  32 H32           -0.7201    -2.0143    -1.6495 H       
  33 H33           -4.9600    -1.7748     2.3249 H       
  34 H34           -4.0661    -0.3106     2.7995 H       
  35 H35           -5.2932     0.9273     0.8271 H       
  36 H36           -7.5827     0.2441     0.8881 H       
  37 H37           -7.0991    -1.2913     1.8409 H       
  38 H38           -5.5033    -2.5064    -0.5250 H       
@<TRIPOS>BOND
   1    1    2 ar
   2    1    6 ar
   3    1    7 1
   4    2    3 ar
   5    2   11 1
   6    3    4 ar
   7    3   21 1
   8    4    5 ar
   9    4    8 1
  10    5    6 ar
  11    5   22 1
  12    6   23 1
  13    7   24 1
  14    8    9 1
  15    8   25 1
  16    8   26 1
  17    9   10 2
  18    9   27 1
  19   10   28 1
  20   10   29 1
  21   11   12 ar
  22   11   16 ar
  23   12   13 ar
  24   12   30 1
  25   13   14 ar
  26   13   17 1
  27   14   15 ar
  28   14   20 1
  29   15   16 ar
  30   15   31 1
  31   16   32 1
  32   17   18 1
  33   17   33 1
  34   17   34 1
  35   18   19 2
  36   18   35 1
  37   19   36 1
  38   19   37 1
  39   20   38 1

#	End of record

