#	Name: ASD01811262
#	Creating user name:	WinNT
#	Creation time:	15. 06. 2019 19:26

#	Modifying user name:	WinNT
#	Modification time:	15. 06. 2019 19:26

#	Program:	/corina/corina34_cracker 3.40 0067  02.08.2006

@<TRIPOS>MOLECULE
ASD01811262
  64   68    0    0    0
SMALL
NO_CHARGES


@<TRIPOS>ATOM
   1 C1            -7.3432     2.2275    -4.0127 C.1     
   2 C2            -6.3647     3.0120    -3.3216 C.ar    
   3 C3            -5.2096     2.4091    -2.8196 C.ar    
   4 C4            -4.2711     3.1708    -2.1548 C.ar    
   5 C5            -4.4725     4.5291    -1.9845 C.ar    
   6 C6            -5.6151     5.1328    -2.4790 C.ar    
   7 C7            -6.5586     4.3843    -3.1516 C.ar    
   8 N8            -8.1195     1.6052    -4.5610 N.1     
   9 N9            -2.4087     7.7654    -0.1993 N.am    
  10 C10           -1.8418     7.2612    -1.4575 C.3     
  11 C11           -2.9127     6.4461    -2.1892 C.3     
  12 C12           -3.4430     5.3546    -1.2567 C.3     
  13 C13           -4.0841     5.9998    -0.0260 C.3     
  14 C14           -3.0264     6.8099     0.7303 C.3     
  15 C15           -2.3582     9.0788     0.0990 C.2     
  16 C16           -3.0103     9.5830     1.3229 C.ar    
  17 C17           -3.9600    10.6071     1.2383 C.ar    
  18 C18           -4.5715    11.0807     2.3767 C.ar    
  19 C19           -4.2493    10.5448     3.6189 C.ar    
  20 C20           -3.2975     9.5168     3.7142 C.ar    
  21 C21           -2.6842     9.0347     2.5633 C.ar    
  22 O22           -1.7751     9.8482    -0.6403 O.2     
  23 C23           -4.3141    11.1938    -0.1039 C.3     
  24 N24           -2.9277     8.5935     7.1304 N.2     
  25 N25           -3.4553     9.3003     6.1953 N.2     
  26 C26           -2.9525     8.9455     5.0333 C.2     
  27 N27           -2.0493     7.9462     5.2771 N.pl3   
  28 C28           -2.0650     7.7537     6.6253 C.2     
  29 C29           -1.2377     6.7553     7.3933 C.3     
  30 C30           -0.4468     7.4800     8.4842 C.3     
  31 N31           -4.8679    11.0263     4.7640 N.3     
  32 C32           -4.7103    12.4884     4.8749 C.3     
  33 C33           -6.1728    12.5551     5.3367 C.3     
  34 C34           -6.3061    11.2551     4.5313 C.3     
  35 H35           -5.0514     1.3489    -2.9513 H       
  36 H36           -3.3772     2.7058    -1.7661 H       
  37 H37           -5.7662     6.1934    -2.3422 H       
  38 H38           -7.4477     4.8577    -3.5413 H       
  39 H39           -1.5318     8.1001    -2.0806 H       
  40 H40           -0.9825     6.6260    -1.2424 H       
  41 H41           -3.7316     7.1025    -2.4836 H       
  42 H42           -2.4771     5.9866    -3.0765 H       
  43 H43           -2.6193     4.7134    -0.9428 H       
  44 H44           -4.8919     6.6604    -0.3407 H       
  45 H45           -4.4823     5.2227     0.6264 H       
  46 H46           -2.2638     6.1378     1.1238 H       
  47 H47           -3.4981     7.3509     1.5506 H       
  48 H48           -5.3038    11.8713     2.3051 H       
  49 H49           -1.9544     8.2414     2.6300 H       
  50 H50           -5.0813    10.5812    -0.5773 H       
  51 H51           -4.6907    12.2078     0.0308 H       
  52 H52           -3.4263    11.2170    -0.7359 H       
  53 H53           -1.5096     7.4731     4.6246 H       
  54 H54           -1.8940     6.0152     7.8512 H       
  55 H55           -0.5465     6.2569     6.7137 H       
  56 H56            0.1516     6.7579     9.0396 H       
  57 H57            0.2096     8.2200     8.0263 H       
  58 H58           -1.1380     7.9784     9.1638 H       
  59 H59           -3.9983    12.7914     5.6426 H       
  60 H60           -4.5342    12.9800     3.9181 H       
  61 H61           -6.3077    12.4304     6.4111 H       
  62 H62           -6.7330    13.3947     4.9250 H       
  63 H63           -6.5559    11.4175     3.4828 H       
  64 H64           -6.9466    10.5129     5.0078 H       
@<TRIPOS>BOND
   1    1    2 1
   2    1    8 3
   3    2    3 ar
   4    2    7 ar
   5    3    4 ar
   6    3   35 1
   7    4    5 ar
   8    4   36 1
   9    5    6 ar
  10    5   12 1
  11    6    7 ar
  12    6   37 1
  13    7   38 1
  14    9   10 1
  15    9   14 1
  16    9   15 am
  17   10   11 1
  18   10   39 1
  19   10   40 1
  20   11   12 1
  21   11   41 1
  22   11   42 1
  23   12   13 1
  24   12   43 1
  25   13   14 1
  26   13   44 1
  27   13   45 1
  28   14   46 1
  29   14   47 1
  30   15   16 1
  31   15   22 2
  32   16   17 ar
  33   16   21 ar
  34   17   18 ar
  35   17   23 1
  36   18   19 ar
  37   18   48 1
  38   19   20 ar
  39   19   31 1
  40   20   21 ar
  41   20   26 1
  42   21   49 1
  43   23   50 1
  44   23   51 1
  45   23   52 1
  46   24   25 1
  47   24   28 2
  48   25   26 2
  49   26   27 1
  50   27   28 1
  51   27   53 1
  52   28   29 1
  53   29   30 1
  54   29   54 1
  55   29   55 1
  56   30   56 1
  57   30   57 1
  58   30   58 1
  59   31   32 1
  60   31   34 1
  61   32   33 1
  62   32   59 1
  63   32   60 1
  64   33   34 1
  65   33   61 1
  66   33   62 1
  67   34   63 1
  68   34   64 1

#	End of record

