#	Name: ASD01180346
#	Creating user name:	WinNT
#	Creation time:	15. 06. 2019 19:07

#	Modifying user name:	WinNT
#	Modification time:	15. 06. 2019 19:07

#	Program:	/corina/corina34_cracker 3.40 0067  02.08.2006

@<TRIPOS>MOLECULE
ASD01180346
  61   63    0    0    0
SMALL
NO_CHARGES


@<TRIPOS>ATOM
   1 C1            -2.1312    -2.2793    -6.7212 C.2     
   2 C2            -1.6326    -2.9740    -5.4803 C.3     
   3 C3            -0.5530    -3.9884    -5.8627 C.3     
   4 O4            -1.6703    -2.5661    -7.8007 O.2     
   5 O5            -3.0912    -1.3458    -6.6280 O.3     
   6 C6             0.8917    -5.6050    -4.7506 C.2     
   7 C7             1.3798    -6.2851    -3.5357 C.ar    
   8 C8             2.3792    -7.2668    -3.6223 C.ar    
   9 C9             2.8018    -7.8717    -2.4698 C.ar    
  10 C10            2.2324    -7.4988    -1.2532 C.ar    
  11 N11            1.2891    -6.5684    -1.1991 N.ar    
  12 C12            0.8585    -5.9575    -2.2833 C.ar    
  13 O13            1.3555    -5.8937    -5.8369 O.2     
  14 N14           -0.0683    -4.6638    -4.6563 N.am    
  15 N15            2.6574    -8.1087    -0.0852 N.pl3   
  16 C16            3.7830    -9.0460    -0.1158 C.3     
  17 C17            4.4266    -9.1156     1.2705 C.3     
  18 C18            5.0452    -7.7591     1.6143 C.3     
  19 C19            5.7904    -7.8615     2.9466 C.3     
  20 C20            2.3759   -12.9262    -1.2309 C.ar    
  21 C21            3.5872   -12.4516    -1.7299 C.ar    
  22 C22            4.0368   -11.1984    -1.3664 C.ar    
  23 C23            3.2871   -10.4137    -0.5087 C.ar    
  24 C24            2.0841   -10.8801    -0.0100 C.ar    
  25 C25            1.6250   -12.1318    -0.3669 C.ar    
  26 C26            1.8844   -14.2703    -1.6230 C.ar    
  27 C27            0.6731   -14.7450    -1.1239 C.ar    
  28 C28            0.2208   -15.9959    -1.4919 C.ar    
  29 C29            0.9678   -16.7782    -2.3541 C.ar    
  30 C30            2.1711   -16.3123    -2.8521 C.ar    
  31 C31            2.6298   -15.0601    -2.4960 C.ar    
  32 C32            0.4689   -18.1435    -2.7518 C.3     
  33 F33           -0.3173   -18.0353    -3.9039 F       
  34 F34            1.5591   -18.9819    -3.0083 F       
  35 F35           -0.2982   -18.6808    -1.7125 F       
  36 H36           -1.2128    -2.2373    -4.7954 H       
  37 H37           -2.4610    -3.4904    -4.9953 H       
  38 H38           -0.9728    -4.7251    -6.5476 H       
  39 H39            0.2754    -3.4720    -6.3476 H       
  40 H40           -3.3786    -0.9278    -7.4513 H       
  41 H41            2.8048    -7.5389    -4.5769 H       
  42 H42            3.5689    -8.6312    -2.5025 H       
  43 H43            0.0926    -5.2003    -2.2032 H       
  44 H44           -0.4383    -4.4335    -3.7897 H       
  45 H45            2.2100    -7.9154     0.7535 H       
  46 H46            4.5205    -8.7044    -0.8421 H       
  47 H47            3.6675    -9.3670     2.0112 H       
  48 H48            5.2034    -9.8802     1.2724 H       
  49 H49            5.7430    -7.4685     0.8290 H       
  50 H50            4.2571    -7.0105     1.6953 H       
  51 H51            6.2311    -6.8951     3.1916 H       
  52 H52            5.0925    -8.1521     3.7319 H       
  53 H53            6.5785    -8.6101     2.8656 H       
  54 H54            4.1733   -13.0634    -2.3996 H       
  55 H55            4.9755   -10.8295    -1.7526 H       
  56 H56            1.5029   -10.2635     0.6596 H       
  57 H57            0.6853   -12.4946     0.0225 H       
  58 H58            0.0895   -14.1352    -0.4502 H       
  59 H59           -0.7179   -16.3648    -1.1057 H       
  60 H60            2.7505   -16.9274    -3.5247 H       
  61 H61            3.5670   -14.6951    -2.8895 H       
@<TRIPOS>BOND
   1    1    2 1
   2    1    4 2
   3    1    5 1
   4    2    3 1
   5    2   36 1
   6    2   37 1
   7    3   14 1
   8    3   38 1
   9    3   39 1
  10    5   40 1
  11    6    7 1
  12    6   13 2
  13    6   14 am
  14    7    8 ar
  15    7   12 ar
  16    8    9 ar
  17    8   41 1
  18    9   10 ar
  19    9   42 1
  20   10   11 ar
  21   10   15 1
  22   11   12 ar
  23   12   43 1
  24   14   44 1
  25   15   16 1
  26   15   45 1
  27   16   17 1
  28   16   23 1
  29   16   46 1
  30   17   18 1
  31   17   47 1
  32   17   48 1
  33   18   19 1
  34   18   49 1
  35   18   50 1
  36   19   51 1
  37   19   52 1
  38   19   53 1
  39   20   21 ar
  40   20   25 ar
  41   20   26 1
  42   21   22 ar
  43   21   54 1
  44   22   23 ar
  45   22   55 1
  46   23   24 ar
  47   24   25 ar
  48   24   56 1
  49   25   57 1
  50   26   27 ar
  51   26   31 ar
  52   27   28 ar
  53   27   58 1
  54   28   29 ar
  55   28   59 1
  56   29   30 ar
  57   29   32 1
  58   30   31 ar
  59   30   60 1
  60   31   61 1
  61   32   33 1
  62   32   34 1
  63   32   35 1

#	End of record

