#	Name: ASD01148700
#	Creating user name:	WinNT
#	Creation time:	15. 06. 2019 19:03

#	Modifying user name:	WinNT
#	Modification time:	15. 06. 2019 19:03

#	Program:	/corina/corina34_cracker 3.40 0067  02.08.2006

@<TRIPOS>MOLECULE
ASD01148700
  75   78    0    0    0
SMALL
NO_CHARGES


@<TRIPOS>ATOM
   1 C1            -0.0187     1.5259     0.0104 C.3     
   2 C2             0.0021    -0.0041     0.0020 C.3     
   3 C3             0.7406    -0.5111     1.2420 C.3     
   4 C4             1.4174     2.0541    -0.0004 C.3     
   5 C5             2.1558     1.5479     1.2399 C.3     
   6 C6             3.5906     2.0784     1.2329 C.3     
   7 C7             4.3276     1.5738     2.4753 C.3     
   8 C8             4.3523     0.0447     2.4670 C.3     
   9 C9             5.0311    -0.4786     3.7190 C.3     
  10 C10            6.5128    -0.1215     3.8769 C.3     
  11 C11            7.0349    -1.2233     4.8392 C.3     
  12 C12            6.0741    -2.4286     4.6853 C.3     
  13 C13            5.0924    -2.0248     3.5901 C.3     
  14 C14            5.6584    -2.4077     2.2212 C.3     
  15 C15            3.6759    -2.5483     3.7236 C.3     
  16 C16            2.8727    -2.0076     2.5286 C.3     
  17 C17            2.9097    -0.4840     2.4789 C.3     
  18 C18            2.1766     0.0177     1.2343 C.3     
  19 C19            2.8970    -0.4787    -0.0209 C.3     
  20 N20            6.8196    -3.6239     4.2833 N.pl3   
  21 O21            6.7893    -4.6233     4.9789 O.2     
  22 O22            7.4698    -3.6184     3.2533 O.2     
  23 O23           -0.6871     1.9869     1.1863 O.3     
  24 Si24          -2.2950     2.1874     0.9998 Si      
  25 C25           -2.6131     3.4413    -0.3408 C.3     
  26 C26           -3.0728     0.5619     0.5270 C.3     
  27 C27           -3.0357     2.7880     2.6003 C.3     
  28 C28           -2.3969     4.1229     2.9886 C.3     
  29 C29           -4.5440     2.9761     2.4254 C.3     
  30 C30           -2.7744     1.7582     3.7013 C.3     
  31 H31           -0.5456     1.8871    -0.8727 H       
  32 H32           -1.0205    -0.3813     0.0086 H       
  33 H33            0.5131    -0.3555    -0.8943 H       
  34 H34            0.2292    -0.1600     2.1382 H       
  35 H35            0.7550    -1.6010     1.2358 H       
  36 H36            1.9277     1.7009    -0.8965 H       
  37 H37            1.4037     3.1440     0.0043 H       
  38 H38            1.6435     1.8990     2.1356 H       
  39 H39            4.1038     1.7263     0.3380 H       
  40 H40            3.5750     3.1683     1.2375 H       
  41 H41            5.3493     1.9537     2.4711 H       
  42 H42            3.8133     1.9240     3.3702 H       
  43 H43            4.8839    -0.3102     1.5840 H       
  44 H44            4.4722    -0.1798     4.6058 H       
  45 H45            7.0264    -0.1728     2.9168 H       
  46 H46            6.6260     0.8662     4.3238 H       
  47 H47            8.0477    -1.5142     4.5605 H       
  48 H48            7.0187    -0.8607     5.8670 H       
  49 H49            5.5434    -2.6102     5.6199 H       
  50 H50            6.6624    -1.9968     2.1152 H       
  51 H51            5.6994    -3.4936     2.1358 H       
  52 H52            5.0167    -2.0056     1.4372 H       
  53 H53            3.6802    -3.6382     3.7048 H       
  54 H54            3.2363    -2.1946     4.6562 H       
  55 H55            3.2951    -2.4050     1.6057 H       
  56 H56            1.8373    -2.3367     2.6164 H       
  57 H57            2.3978    -0.0905     3.3571 H       
  58 H58            2.3731    -0.1195    -0.9066 H       
  59 H59            3.9198    -0.1017    -0.0258 H       
  60 H60            2.9115    -1.5686    -0.0243 H       
  61 H61           -2.1798     3.0900    -1.2772 H       
  62 H62           -3.6876     3.5753    -0.4654 H       
  63 H63           -2.1581     4.3924    -0.0642 H       
  64 H64           -2.8867    -0.1717     1.3113 H       
  65 H65           -4.1473     0.6959     0.4023 H       
  66 H66           -2.6394     0.2105    -0.4094 H       
  67 H67           -2.5830     4.8566     2.2042 H       
  68 H68           -2.8303     4.4743     3.9250 H       
  69 H69           -1.3224     3.9890     3.1132 H       
  70 H70           -4.9990     2.0250     2.1487 H       
  71 H71           -4.9773     3.3274     3.3617 H       
  72 H72           -4.7301     3.7097     1.6410 H       
  73 H73           -1.6999     1.6242     3.8259 H       
  74 H74           -3.2078     2.1096     4.6377 H       
  75 H75           -3.2295     0.8072     3.4246 H       
@<TRIPOS>BOND
   1    1    2 1
   2    1    4 1
   3    1   23 1
   4    1   31 1
   5    2    3 1
   6    2   32 1
   7    2   33 1
   8    3   18 1
   9    3   34 1
  10    3   35 1
  11    4    5 1
  12    4   36 1
  13    4   37 1
  14    5    6 1
  15    5   18 1
  16    5   38 1
  17    6    7 1
  18    6   39 1
  19    6   40 1
  20    7    8 1
  21    7   41 1
  22    7   42 1
  23    8    9 1
  24    8   17 1
  25    8   43 1
  26    9   10 1
  27    9   13 1
  28    9   44 1
  29   10   11 1
  30   10   45 1
  31   10   46 1
  32   11   12 1
  33   11   47 1
  34   11   48 1
  35   12   13 1
  36   12   20 1
  37   12   49 1
  38   13   14 1
  39   13   15 1
  40   14   50 1
  41   14   51 1
  42   14   52 1
  43   15   16 1
  44   15   53 1
  45   15   54 1
  46   16   17 1
  47   16   55 1
  48   16   56 1
  49   17   18 1
  50   17   57 1
  51   18   19 1
  52   19   58 1
  53   19   59 1
  54   19   60 1
  55   20   21 2
  56   20   22 2
  57   23   24 1
  58   24   25 1
  59   24   26 1
  60   24   27 1
  61   25   61 1
  62   25   62 1
  63   25   63 1
  64   26   64 1
  65   26   65 1
  66   26   66 1
  67   27   28 1
  68   27   30 1
  69   27   29 1
  70   28   67 1
  71   28   68 1
  72   28   69 1
  73   29   70 1
  74   29   71 1
  75   29   72 1
  76   30   73 1
  77   30   74 1
  78   30   75 1

#	End of record

