#	Name: ASD07930051
#	Creating user name:	WinNT
#	Creation time:	15. 06. 2019 21:11

#	Modifying user name:	WinNT
#	Modification time:	15. 06. 2019 21:11

#	Program:	/corina/corina34_cracker 3.40 0067  02.08.2006

@<TRIPOS>MOLECULE
ASD07930051
  43   45    0    0    0
SMALL
NO_CHARGES


@<TRIPOS>ATOM
   1 C1            -0.0167     1.3793     0.0096 C.ar    
   2 C2             0.0021    -0.0041     0.0020 C.ar    
   3 C3             1.2049    -0.6803    -0.0131 C.ar    
   4 C4             2.4023     0.0330    -0.0207 C.ar    
   5 C5             2.3774     1.4261    -0.0129 C.ar    
   6 C6             1.1685     2.0921     0.0021 C.ar    
   7 C7             5.0279    -2.5614    -0.0587 C.2     
   8 S8             1.1341     3.9018     0.0116 Du      
   9 F9            -0.0151     3.8859    -1.1159 F       
  10 F10            1.1036     5.5115     0.0200 F       
  11 F11            2.2834     3.9177     1.1390 F       
  12 F12            0.0070     3.8744     1.1609 F       
  13 F13            2.2613     3.9292    -1.1377 F       
  14 C14            5.3871    -4.0249    -0.0687 C.3     
  15 C15            6.7156    -4.2265    -0.8036 C.3     
  16 C16            6.5165    -4.0798    -2.2859 C.2     
  17 N17            5.3230    -4.2437    -2.8749 N.am    
  18 C18            4.1853    -4.4982    -2.1285 C.2     
  19 N19            4.3483    -4.7877    -0.7844 N.pl3   
  20 C20            5.5083    -4.5371     1.3679 C.3     
  21 N21            3.0026    -4.4665    -2.6718 N.2     
  22 O22            7.4732    -3.8016    -2.9769 O.2     
  23 C23            5.2214    -4.1514    -4.3335 C.3     
  24 C24            3.7878    -2.0793    -0.0442 C.2     
  25 C25            3.6986    -0.6885    -0.0364 C.2     
  26 C26            4.8853    -0.0539    -0.0447 C.2     
  27 S27            6.1854    -1.2380    -0.0567 S.3     
  28 H28           -0.9604     1.9045     0.0169 H       
  29 H29           -0.9264    -0.5557     0.0083 H       
  30 H30            1.2184    -1.7602    -0.0186 H       
  31 H31            3.3023     1.9838    -0.0184 H       
  32 H32            7.4346    -3.4826    -0.4605 H       
  33 H33            7.1000    -5.2234    -0.5879 H       
  34 H34            3.8077    -5.4574    -0.3372 H       
  35 H35            4.5572    -4.4024     1.8831 H       
  36 H36            5.7681    -5.5956     1.3556 H       
  37 H37            6.2859    -3.9781     1.8885 H       
  38 H38            2.9076    -4.2619    -3.6152 H       
  39 H39            5.3725    -5.1381    -4.7714 H       
  40 H40            4.2335    -3.7803    -4.6061 H       
  41 H41            5.9827    -3.4672    -4.7081 H       
  42 H42            2.9165    -2.7174    -0.0393 H       
  43 H43            5.0187     1.0178    -0.0406 H       
@<TRIPOS>BOND
   1    1    2 ar
   2    1    6 ar
   3    1   28 1
   4    2    3 ar
   5    2   29 1
   6    3    4 ar
   7    3   30 1
   8    4    5 ar
   9    4   25 1
  10    5    6 ar
  11    5   31 1
  12    6    8 1
  13    7   14 1
  14    7   24 2
  15    7   27 1
  16    8    9 1
  17    8   10 1
  18    8   11 1
  19    8   12 1
  20    8   13 1
  21   14   15 1
  22   14   20 1
  23   14   19 1
  24   15   16 1
  25   15   32 1
  26   15   33 1
  27   16   17 am
  28   16   22 2
  29   17   18 1
  30   17   23 1
  31   18   19 1
  32   18   21 2
  33   19   34 1
  34   20   35 1
  35   20   36 1
  36   20   37 1
  37   21   38 1
  38   23   39 1
  39   23   40 1
  40   23   41 1
  41   24   25 1
  42   24   42 1
  43   25   26 2
  44   26   27 1
  45   26   43 1

#	End of record

