#	Name: ASD01410887
#	Creating user name:	WinNT
#	Creation time:	15. 06. 2019 19:18

#	Modifying user name:	WinNT
#	Modification time:	15. 06. 2019 19:18

#	Program:	/corina/corina34_cracker 3.40 0067  02.08.2006

@<TRIPOS>MOLECULE
ASD01410887
  67   69    0    0    0
SMALL
NO_CHARGES


@<TRIPOS>ATOM
   1 C1            -2.5907     3.5141     0.5071 C.ar    
   2 C2            -2.2484     1.1583     0.1773 C.ar    
   3 C3            -3.6140     0.9387     0.2919 C.ar    
   4 C4            -4.4763     2.0202     0.5287 C.ar    
   5 C5            -3.9533     3.3116     0.6294 C.ar    
   6 O6            -2.0803     4.7700     0.6107 O.3     
   7 C7            -1.7128     5.4043    -0.5309 C.ar    
   8 N8            -4.1261    -0.3534     0.1835 N.am    
   9 C9            -4.1818    -1.1495     1.2696 C.2     
  10 C10           -3.7708    -0.6151     2.6174 C.3     
  11 O11           -4.5628    -2.2959     1.1623 O.2     
  12 C12           -4.6670    -1.2192     3.7004 C.3     
  13 C13           -1.8964    -0.4491     4.2610 C.3     
  14 C14           -2.7925    -1.0532     5.3440 C.3     
  15 C15           -4.2497    -0.6767     5.0688 C.3     
  16 C16           -2.3752    -0.5107     6.7124 C.3     
  17 N17           -1.7977     4.7705    -1.6890 N.ar    
  18 C18           -1.2565     6.7149    -0.4732 C.ar    
  19 C19           -0.8851     7.3508    -1.6452 C.ar    
  20 C20           -0.9839     6.6496    -2.8389 C.ar    
  21 C21           -1.4512     5.3501    -2.8223 C.ar    
  22 C22           -2.3137    -0.9916     2.8926 C.3     
  23 C23           -1.7407     2.4373     0.2845 C.ar    
  24 C24           -4.6036    -0.8459    -1.1110 C.3     
  25 C25           -3.4493    -1.5157    -1.8591 C.3     
  26 C26           -3.9480    -2.0301    -3.2110 C.3     
  27 O27           -2.8699    -2.6557    -3.9098 O.3     
  28 C28           -3.2310    -3.1736    -5.1918 C.3     
  29 C29           -2.0063    -3.8170    -5.8453 C.3     
  30 C30           -1.1673     7.4351     0.8476 C.3     
  31 F31           -0.6829     8.7311     0.6403 F       
  32 F32           -2.4376     7.4996     1.4302 F       
  33 F33           -0.2987     6.7430     1.6983 F       
  34 C34           -5.9281     1.7971     0.6514 C.2     
  35 O35           -6.3812     0.6744     0.5475 O.2     
  36 O36           -6.7529     2.8382     0.8788 O.3     
  37 H37           -1.5824     0.3278    -0.0049 H       
  38 H38           -4.6116     4.1500     0.8027 H       
  39 H39           -3.8733     0.4701     2.6247 H       
  40 H40           -5.7051    -0.9510     3.5044 H       
  41 H41           -4.5645    -2.3044     3.6932 H       
  42 H42           -1.9989     0.6361     4.2682 H       
  43 H43           -0.8583    -0.7173     4.4570 H       
  44 H44           -2.6900    -2.1384     5.3367 H       
  45 H45           -4.3522     0.4084     5.0761 H       
  46 H46           -4.8881    -1.1071     5.8404 H       
  47 H47           -2.4777     0.5744     6.7196 H       
  48 H48           -3.0137    -0.9411     7.4839 H       
  49 H49           -1.3371    -0.7790     6.9084 H       
  50 H50           -0.5268     8.3696    -1.6312 H       
  51 H51           -0.7026     7.1166    -3.7711 H       
  52 H52           -1.5298     4.8000    -3.7484 H       
  53 H53           -2.2112    -2.0768     2.8853 H       
  54 H54           -1.6753    -0.5612     2.1210 H       
  55 H55           -0.6772     2.6022     0.1945 H       
  56 H56           -5.4024    -1.5702    -0.9519 H       
  57 H57           -4.9824    -0.0107    -1.7001 H       
  58 H58           -2.6505    -0.7914    -2.0182 H       
  59 H59           -3.0705    -2.3509    -1.2699 H       
  60 H60           -4.7469    -2.7544    -3.0519 H       
  61 H61           -4.3269    -1.1949    -3.8002 H       
  62 H62           -4.0149    -3.9216    -5.0738 H       
  63 H63           -3.5949    -2.3622    -5.8221 H       
  64 H64           -2.2817    -4.2120    -6.8232 H       
  65 H65           -1.2223    -3.0689    -5.9633 H       
  66 H66           -1.6424    -4.6284    -5.2150 H       
  67 H67           -7.6970     2.6425     0.9517 H       
@<TRIPOS>BOND
   1    1   23 ar
   2    1    6 1
   3    1    5 ar
   4    2    3 ar
   5    2   23 ar
   6    2   37 1
   7    3    4 ar
   8    3    8 1
   9    4    5 ar
  10    4   34 1
  11    5   38 1
  12    6    7 1
  13    7   18 ar
  14    7   17 ar
  15    8    9 am
  16    8   24 1
  17    9   11 2
  18    9   10 1
  19   10   12 1
  20   10   22 1
  21   10   39 1
  22   12   15 1
  23   12   40 1
  24   12   41 1
  25   13   14 1
  26   13   22 1
  27   13   42 1
  28   13   43 1
  29   14   15 1
  30   14   16 1
  31   14   44 1
  32   15   45 1
  33   15   46 1
  34   16   47 1
  35   16   48 1
  36   16   49 1
  37   17   21 ar
  38   18   19 ar
  39   18   30 1
  40   19   20 ar
  41   19   50 1
  42   20   21 ar
  43   20   51 1
  44   21   52 1
  45   22   53 1
  46   22   54 1
  47   23   55 1
  48   24   25 1
  49   24   56 1
  50   24   57 1
  51   25   26 1
  52   25   58 1
  53   25   59 1
  54   26   27 1
  55   26   60 1
  56   26   61 1
  57   27   28 1
  58   28   29 1
  59   28   62 1
  60   28   63 1
  61   29   64 1
  62   29   65 1
  63   29   66 1
  64   30   31 1
  65   30   32 1
  66   30   33 1
  67   34   35 2
  68   34   36 1
  69   36   67 1

#	End of record

