#	Name: ASD03091138
#	Creating user name:	WinNT
#	Creation time:	15. 06. 2019 20:30

#	Modifying user name:	WinNT
#	Modification time:	15. 06. 2019 20:30

#	Program:	/corina/corina34_cracker 3.40 0067  02.08.2006

@<TRIPOS>MOLECULE
ASD03091138
  41   43    0    0    0
SMALL
NO_CHARGES


@<TRIPOS>ATOM
   1 C1            -0.0425     1.3732     0.1887 C.ar    
   2 C2            -0.0361    -0.0130     0.2791 C.ar    
   3 C3             1.1632    -0.6975     0.2872 C.ar    
   4 C4             2.3580    -0.0038     0.2058 C.ar    
   5 C5             2.3546     1.3772     0.1161 C.ar    
   6 C6             1.1583     2.0669     0.1066 C.ar    
   7 N7            -1.2551     2.0684     0.1745 N.pl3   
   8 C8            -1.2600     3.4277     0.0858 C.2     
   9 C9            -2.4411     4.0986    -0.0522 C.2     
  10 C10           -2.4657     5.5707     0.0230 C.2     
  11 C11           -3.6855     3.3546    -0.2751 C.2     
  12 C12           -2.6564     7.7113    -0.3901 C.2     
  13 N13           -2.2792     7.5084     0.8414 N.2     
  14 O14           -2.1657     6.3311     1.0916 O.3     
  15 C15           -2.7932     6.4422    -0.9840 C.2     
  16 C16           -2.8984     9.0446    -1.0495 C.3     
  17 O17           -3.6511     2.1517    -0.4574 O.2     
  18 N18           -4.8670     4.0031    -0.2781 N.am    
  19 C19           -6.0609     3.2813    -0.3822 C.ar    
  20 C20           -7.3502     1.3187     0.1043 C.ar    
  21 C21           -6.1705     2.0292     0.2086 C.ar    
  22 C22           -7.1405     3.8179    -1.0716 C.ar    
  23 C23           -8.3179     3.1032    -1.1728 C.ar    
  24 C24           -8.4225     1.8533    -0.5881 C.ar    
  25 Cl25          -9.9037     0.9574    -0.7177 Cl      
  26 Cl26           3.8638    -0.8676     0.2168 Cl      
  27 H27           -0.9681    -0.5548     0.3433 H       
  28 H28            1.1688    -1.7752     0.3574 H       
  29 H29            3.2885     1.9160     0.0530 H       
  30 H30            1.1562     3.1446     0.0359 H       
  31 H31           -2.0932     1.5829     0.2278 H       
  32 H32           -0.3296     3.9747     0.1246 H       
  33 H33           -3.0873     6.2092    -1.9968 H       
  34 H34           -1.9732     9.3980    -1.5048 H       
  35 H35           -3.6635     8.9362    -1.8182 H       
  36 H36           -3.2335     9.7640    -0.3022 H       
  37 H37           -4.8895     4.9703    -0.2082 H       
  38 H38           -7.4358     0.3448     0.5633 H       
  39 H39           -5.3339     1.6113     0.7488 H       
  40 H40           -7.0595     4.7935    -1.5278 H       
  41 H41           -9.1578     3.5202    -1.7085 H       
@<TRIPOS>BOND
   1    1    2 ar
   2    1    6 ar
   3    1    7 1
   4    2    3 ar
   5    2   27 1
   6    3    4 ar
   7    3   28 1
   8    4    5 ar
   9    4   26 1
  10    5    6 ar
  11    5   29 1
  12    6   30 1
  13    7    8 1
  14    7   31 1
  15    8    9 2
  16    8   32 1
  17    9   10 1
  18    9   11 1
  19   10   15 2
  20   10   14 1
  21   11   17 2
  22   11   18 am
  23   12   13 2
  24   12   15 1
  25   12   16 1
  26   13   14 1
  27   15   33 1
  28   16   34 1
  29   16   35 1
  30   16   36 1
  31   18   19 1
  32   18   37 1
  33   19   22 ar
  34   19   21 ar
  35   20   21 ar
  36   20   24 ar
  37   20   38 1
  38   21   39 1
  39   22   23 ar
  40   22   40 1
  41   23   24 ar
  42   23   41 1
  43   24   25 1

#	End of record

