#	Name: ASD00842786
#	Creating user name:	WinNT
#	Creation time:	15. 06. 2019 18:45

#	Modifying user name:	WinNT
#	Modification time:	15. 06. 2019 18:45

#	Program:	/corina/corina34_cracker 3.40 0067  02.08.2006

@<TRIPOS>MOLECULE
ASD00842786
  95  100    0    0    0
SMALL
NO_CHARGES


@<TRIPOS>ATOM
   1 N1            -0.0147     1.3153     0.0242 N.ar    
   2 C2             0.0025    -0.0070     0.0104 C.ar    
   3 C3             1.2069    -0.6991    -0.0071 C.ar    
   4 C4             2.3930     0.0137    -0.0099 C.ar    
   5 C5             2.3320     1.4006     0.0049 C.ar    
   6 C6             1.0996     2.0223     0.0219 C.ar    
   7 C7             1.2216    -2.2059    -0.0223 C.3     
   8 C8             0.4763    -2.7314    -1.2307 C.2     
   9 N9             2.5990    -2.7047    -0.0120 N.am    
  10 C10            3.4467    -2.3635    -1.0028 C.2     
  11 N11            4.7402    -2.7372    -0.9415 N.am    
  12 O12            3.0444    -1.7187    -1.9519 O.2     
  13 C13            5.6553    -2.4759    -2.0628 C.3     
  14 C14            6.9060    -1.7778    -1.5180 C.3     
  15 N15            7.4742    -2.5800    -0.4264 N.3     
  16 C16            6.5396    -2.6819     0.7024 C.3     
  17 C17            5.2754    -3.4115     0.2510 C.3     
  18 C18            8.7676    -2.0360     0.0085 C.3     
  19 C19            9.2691    -2.8190     1.2250 C.3     
  20 C20           10.6443    -2.2880     1.6359 C.3     
  21 N21           11.5822    -2.4357     0.5156 N.3     
  22 C22           11.1459    -1.6543    -0.6486 C.3     
  23 C23            9.7857    -2.1664    -1.1277 C.3     
  24 C24           12.9454    -2.0645     0.9179 C.3     
  25 O25            0.7570    -2.5309    -2.3935 O.2     
  26 N26           -0.5548    -3.4614    -0.7731 N.am    
  27 C27            0.4478    -2.7549     1.1543 C.ar    
  28 C28           -0.6002    -3.4955     0.6216 C.ar    
  29 C29            0.6114    -2.6416     2.5165 C.ar    
  30 C30           -0.2757    -3.2708     3.3738 C.ar    
  31 C31           -1.3253    -4.0124     2.8552 C.ar    
  32 C32           -1.4899    -4.1265     1.4880 C.ar    
  33 Cl33          -0.0734    -3.1314     5.0923 Cl      
  34 F34           -2.1916    -4.6268     3.6902 F       
  35 C35           -1.0185    -5.8491    -2.0608 C.ar    
  36 C36            0.1597    -6.0115    -2.7747 C.ar    
  37 C37           -1.6963    -6.9562    -1.5878 C.ar    
  38 C38           -1.2010    -8.2249    -1.8249 C.ar    
  39 C39           -0.0266    -8.3894    -2.5363 C.ar    
  40 C40            0.6545    -7.2859    -3.0117 C.ar    
  41 H41            0.3583    -9.3816    -2.7202 H       
  42 O42            0.8281    -4.9241    -3.2414 O.3     
  43 C43            2.0343    -5.1667    -3.9682 C.3     
  44 C44            2.6406    -3.8332    -4.4098 C.3     
  45 C45           13.9288    -2.4633    -0.1842 C.3     
  46 C46           15.3486    -2.0768     0.2347 C.3     
  47 O47           -1.1673    -0.6942     0.0138 O.3     
  48 C48           -2.3715     0.0749     0.0325 C.3     
  49 C49           -3.5778    -0.8662     0.0336 C.3     
  50 F50           -3.5501    -1.6612    -1.1172 F       
  51 F51           -3.5297    -1.6848     1.1671 F       
  52 S52           -1.6463    -4.2321    -1.7514 S.o2    
  53 O53           -2.8274    -4.4011    -0.9797 O.2     
  54 O54           -1.6226    -3.5475    -2.9964 O.2     
  55 H55            3.3444    -0.4972    -0.0230 H       
  56 H56            3.2391     1.9868     0.0035 H       
  57 H57            1.0467     3.1009     0.0331 H       
  58 H58            2.9010    -3.2804     0.7079 H       
  59 H59            5.9373    -3.4182    -2.5325 H       
  60 H60            5.1653    -1.8318    -2.7930 H       
  61 H61            7.6420    -1.6755    -2.3154 H       
  62 H62            6.6369    -0.7907    -1.1420 H       
  63 H63            7.0100    -3.2353     1.5152 H       
  64 H64            6.2757    -1.6822     1.0474 H       
  65 H65            4.5345    -3.3888     1.0500 H       
  66 H66            5.5180    -4.4446     0.0021 H       
  67 H67            8.6500    -0.9855     0.2747 H       
  68 H68            8.5693    -2.6950     2.0514 H       
  69 H69            9.3484    -3.8758     0.9701 H       
  70 H70           10.5616    -1.2347     1.9039 H       
  71 H71           11.0105    -2.8530     2.4931 H       
  72 H72           11.0609    -0.6039    -0.3699 H       
  73 H73           11.8765    -1.7590    -1.4507 H       
  74 H74            9.8731    -3.2129    -1.4197 H       
  75 H75            9.4550    -1.5761    -1.9822 H       
  76 H76           12.9964    -0.9876     1.0781 H       
  77 H77           13.2053    -2.5820     1.8414 H       
  78 H78            1.4309    -2.0628     2.9162 H       
  79 H79           -2.3101    -4.7057     1.0903 H       
  80 H80           -2.6137    -6.8304    -1.0319 H       
  81 H81           -1.7320    -9.0890    -1.4537 H       
  82 H82            1.5713    -7.4149    -3.5679 H       
  83 H83            2.7431    -5.6945    -3.3301 H       
  84 H84            1.8137    -5.7740    -4.8461 H       
  85 H85            1.9318    -3.3054    -5.0479 H       
  86 H86            2.8612    -3.2259    -3.5320 H       
  87 H87            3.5607    -4.0182    -4.9642 H       
  88 H88           13.8778    -3.5403    -0.3445 H       
  89 H89           13.6689    -1.9459    -1.1077 H       
  90 H90           16.0492    -2.3609    -0.5505 H       
  91 H91           15.3997    -0.9998     0.3950 H       
  92 H92           15.6085    -2.5942     1.1582 H       
  93 H93           -2.3931     0.6943     0.9292 H       
  94 H94           -2.4091     0.7127    -0.8506 H       
  95 H95           -4.4964    -0.2795     0.0479 H       
@<TRIPOS>BOND
   1    1    2 ar
   2    1    6 ar
   3    2    3 ar
   4    2   47 1
   5    3    4 ar
   6    3    7 1
   7    4    5 ar
   8    4   55 1
   9    5    6 ar
  10    5   56 1
  11    6   57 1
  12    7    8 1
  13    7    9 1
  14    7   27 1
  15    8   25 2
  16    8   26 am
  17    9   10 am
  18    9   58 1
  19   10   11 am
  20   10   12 2
  21   11   13 1
  22   11   17 1
  23   13   14 1
  24   13   59 1
  25   13   60 1
  26   14   15 1
  27   14   61 1
  28   14   62 1
  29   15   16 1
  30   15   18 1
  31   16   17 1
  32   16   63 1
  33   16   64 1
  34   17   65 1
  35   17   66 1
  36   18   19 1
  37   18   23 1
  38   18   67 1
  39   19   20 1
  40   19   68 1
  41   19   69 1
  42   20   21 1
  43   20   70 1
  44   20   71 1
  45   21   22 1
  46   21   24 1
  47   22   23 1
  48   22   72 1
  49   22   73 1
  50   23   74 1
  51   23   75 1
  52   24   45 1
  53   24   76 1
  54   24   77 1
  55   26   52 am
  56   26   28 1
  57   27   28 ar
  58   27   29 ar
  59   28   32 ar
  60   29   30 ar
  61   29   78 1
  62   30   31 ar
  63   30   33 1
  64   31   32 ar
  65   31   34 1
  66   32   79 1
  67   35   36 ar
  68   35   37 ar
  69   35   52 1
  70   36   42 1
  71   36   40 ar
  72   37   38 ar
  73   37   80 1
  74   38   39 ar
  75   38   81 1
  76   39   40 ar
  77   39   41 1
  78   40   82 1
  79   42   43 1
  80   43   44 1
  81   43   83 1
  82   43   84 1
  83   44   85 1
  84   44   86 1
  85   44   87 1
  86   45   46 1
  87   45   88 1
  88   45   89 1
  89   46   90 1
  90   46   91 1
  91   46   92 1
  92   47   48 1
  93   48   49 1
  94   48   93 1
  95   48   94 1
  96   49   50 1
  97   49   51 1
  98   49   95 1
  99   52   53 2
 100   52   54 2

#	End of record

