#	Name: ASD00660015
#	Creating user name:	WinNT
#	Creation time:	15. 06. 2019 18:36

#	Modifying user name:	WinNT
#	Modification time:	15. 06. 2019 18:36

#	Program:	/corina/corina34_cracker 3.40 0067  02.08.2006

@<TRIPOS>MOLECULE
ASD00660015
  63   65    0    0    0
SMALL
NO_CHARGES


@<TRIPOS>ATOM
   1 C1             6.3586    -2.2105    -6.9557 C.ar    
   2 C2             5.8266    -3.3057    -6.2873 C.ar    
   3 C3             5.6841    -3.2954    -4.9185 C.ar    
   4 C4             6.0789    -2.1700    -4.1898 C.ar    
   5 C5             6.6201    -1.0573    -4.8735 C.ar    
   6 C6             6.7553    -1.0895    -6.2603 C.ar    
   7 N7             5.9552    -2.1195    -2.8427 N.2     
   8 C8             6.3251    -1.0643    -2.1596 C.2     
   9 N9             6.8564     0.0511    -2.7414 N.am    
  10 C10            7.0264     0.1124    -4.0824 C.2     
  11 C11            7.2450     1.1908    -1.9069 C.3     
  12 C12            8.7402     1.4642    -2.0812 C.3     
  13 C13            6.4480     2.4269    -2.3287 C.3     
  14 O14            7.4991     1.1002    -4.6139 O.2     
  15 S15            6.1272    -1.0852    -0.4089 S.3     
  16 C16            5.2588    -2.6608    -0.2096 C.3     
  17 C17            6.1912    -3.7948    -0.5498 C.2     
  18 N18            5.6923    -4.9761    -0.9646 N.am    
  19 O19            7.3905    -3.6444    -0.4503 O.2     
  20 C20            6.5886    -6.0910    -1.2999 C.3     
  21 C21            6.2534    -6.5860    -2.7104 C.3     
  22 C22            4.7645    -6.9323    -2.7847 C.3     
  23 C23            3.9328    -5.6790    -2.5024 C.3     
  24 C24            4.2415    -5.1754    -1.0842 C.3     
  25 C25            4.4381    -7.4519    -4.1611 C.2     
  26 N26            3.1771    -7.8221    -4.4601 N.am    
  27 O27            5.3100    -7.5369    -4.9998 O.2     
  28 C28            4.7887    -2.8043     1.2393 C.3     
  29 C29            3.7366    -1.7355     1.5423 C.3     
  30 C30            3.1737    -1.9579     2.9475 C.3     
  31 C31            2.1217    -0.8891     3.2505 C.3     
  32 H32            6.4665    -2.2399    -8.0299 H       
  33 H33            5.5205    -4.1760    -6.8487 H       
  34 H34            5.2687    -4.1528    -4.4098 H       
  35 H35            7.1682    -0.2413    -6.7862 H       
  36 H36            7.0366     0.9635    -0.8615 H       
  37 H37            8.9486     1.6915    -3.1266 H       
  38 H38            9.0293     2.3121    -1.4603 H       
  39 H39            9.3080     0.5836    -1.7807 H       
  40 H40            5.3828     2.2322    -2.2046 H       
  41 H41            6.7371     3.2749    -1.7078 H       
  42 H42            6.6564     2.6543    -3.3742 H       
  43 H43            4.3964    -2.6872    -0.8757 H       
  44 H44            7.6234    -5.7500    -1.2686 H       
  45 H45            6.4469    -6.9014    -0.5849 H       
  46 H46            6.4816    -5.8037    -3.4343 H       
  47 H47            6.8450    -7.4736    -2.9345 H       
  48 H48            4.5321    -7.6969    -2.0436 H       
  49 H49            4.1829    -4.9052    -3.2283 H       
  50 H50            2.8728    -5.9210    -2.5785 H       
  51 H51            3.9071    -5.9123    -0.3539 H       
  52 H52            3.7285    -4.2291    -0.9127 H       
  53 H53            2.4797    -7.7541    -3.7894 H       
  54 H54            2.9670    -8.1565    -5.3461 H       
  55 H55            4.3540    -3.7933     1.3840 H       
  56 H56            5.6379    -2.6788     1.9110 H       
  57 H57            4.1952    -0.7482     1.4867 H       
  58 H58            2.9296    -1.8029     0.8128 H       
  59 H59            2.7152    -2.9452     3.0031 H       
  60 H60            3.9807    -1.8905     3.6771 H       
  61 H61            1.7206    -1.0476     4.2516 H       
  62 H62            2.5802     0.0981     3.1949 H       
  63 H63            1.3146    -0.9566     2.5210 H       
@<TRIPOS>BOND
   1    1    2 ar
   2    1    6 ar
   3    1   32 1
   4    2    3 ar
   5    2   33 1
   6    3    4 ar
   7    3   34 1
   8    4    5 ar
   9    4    7 1
  10    5    6 ar
  11    5   10 1
  12    6   35 1
  13    7    8 2
  14    8    9 1
  15    8   15 1
  16    9   10 am
  17    9   11 1
  18   10   14 2
  19   11   12 1
  20   11   13 1
  21   11   36 1
  22   12   37 1
  23   12   38 1
  24   12   39 1
  25   13   40 1
  26   13   41 1
  27   13   42 1
  28   15   16 1
  29   16   17 1
  30   16   28 1
  31   16   43 1
  32   17   18 am
  33   17   19 2
  34   18   20 1
  35   18   24 1
  36   20   21 1
  37   20   44 1
  38   20   45 1
  39   21   22 1
  40   21   46 1
  41   21   47 1
  42   22   23 1
  43   22   25 1
  44   22   48 1
  45   23   24 1
  46   23   49 1
  47   23   50 1
  48   24   51 1
  49   24   52 1
  50   25   26 am
  51   25   27 2
  52   26   53 1
  53   26   54 1
  54   28   29 1
  55   28   55 1
  56   28   56 1
  57   29   30 1
  58   29   57 1
  59   29   58 1
  60   30   31 1
  61   30   59 1
  62   30   60 1
  63   31   61 1
  64   31   62 1
  65   31   63 1

#	End of record

