#	Name: ASD02198022
#	Creating user name:	WinNT
#	Creation time:	15. 06. 2019 20:18

#	Modifying user name:	WinNT
#	Modification time:	15. 06. 2019 20:18

#	Program:	/corina/corina34_cracker 3.40 0067  02.08.2006

@<TRIPOS>MOLECULE
ASD02198022
  36   38    0    0    0
SMALL
NO_CHARGES


@<TRIPOS>ATOM
   1 N1             0.3697     0.7874     0.2125 N.pl3   
   2 C2             0.3787    -0.5858     0.1280 C.2     
   3 C3            -0.7475    -1.3800     0.1804 C.2     
   4 C4            -2.0695    -0.8506     0.3311 C.1     
   5 S5             1.7830    -1.5336    -0.0630 S.3     
   6 C6             0.8555    -3.0251    -0.0665 C.2     
   7 C7            -0.4833    -2.7435     0.0732 C.2     
   8 C8             1.4009    -4.3161    -0.1979 C.2     
   9 O9             0.6862    -5.2958    -0.0701 O.2     
  10 C10            2.8418    -4.4845    -0.4911 C.ar    
  11 N11           -1.4691    -3.7172     0.1058 N.pl3   
  12 C12            1.5748     1.4903     0.2942 C.ar    
  13 C13            1.7080     2.7195    -0.3392 C.ar    
  14 N14           -3.1183    -0.4307     0.4506 N.1     
  15 C15            2.9003     3.4115    -0.2565 C.ar    
  16 C16            3.9610     2.8819     0.4555 C.ar    
  17 C17            3.8317     1.6585     1.0872 C.ar    
  18 C18            2.6403     0.9641     1.0137 C.ar    
  19 C19            3.5109    -5.6372    -0.0778 C.ar    
  20 C20            4.8541    -5.7880    -0.3542 C.ar    
  21 C21            5.5378    -4.7992    -1.0392 C.ar    
  22 C22            4.8801    -3.6539    -1.4517 C.ar    
  23 C23            3.5356    -3.4938    -1.1870 C.ar    
  24 H24           -0.4729     1.2679     0.2113 H       
  25 H25           -1.2285    -4.6536     0.0281 H       
  26 H26           -2.3995    -3.4622     0.2064 H       
  27 H27            0.8803     3.1334    -0.8960 H       
  28 H28            3.0046     4.3671    -0.7487 H       
  29 H29            4.8925     3.4248     0.5180 H       
  30 H30            4.6621     1.2478     1.6424 H       
  31 H31            2.5400     0.0088     1.5073 H       
  32 H32            2.9785    -6.4094     0.4576 H       
  33 H33            5.3731    -6.6797    -0.0349 H       
  34 H34            6.5894    -4.9217    -1.2525 H       
  35 H35            5.4194    -2.8857    -1.9860 H       
  36 H36            3.0233    -2.5995    -1.5098 H       
@<TRIPOS>BOND
   1    1    2 1
   2    1   12 1
   3    1   24 1
   4    2    3 2
   5    2    5 1
   6    3    4 1
   7    3    7 1
   8    4   14 3
   9    5    6 1
  10    6    7 2
  11    6    8 1
  12    7   11 1
  13    8    9 2
  14    8   10 1
  15   10   19 ar
  16   10   23 ar
  17   11   25 1
  18   11   26 1
  19   12   13 ar
  20   12   18 ar
  21   13   15 ar
  22   13   27 1
  23   15   16 ar
  24   15   28 1
  25   16   17 ar
  26   16   29 1
  27   17   18 ar
  28   17   30 1
  29   18   31 1
  30   19   20 ar
  31   19   32 1
  32   20   21 ar
  33   20   33 1
  34   21   22 ar
  35   21   34 1
  36   22   23 ar
  37   22   35 1
  38   23   36 1

#	End of record

