#	Name: ASD03930020
#	Creating user name:	WinNT
#	Creation time:	15. 06. 2019 20:47

#	Modifying user name:	WinNT
#	Modification time:	15. 06. 2019 20:47

#	Program:	/corina/corina34_cracker 3.40 0067  02.08.2006

@<TRIPOS>MOLECULE
ASD03930020
  33   35    0    0    0
SMALL
NO_CHARGES


@<TRIPOS>ATOM
   1 C1            -0.0211     1.3685     0.0080 C.ar    
   2 C2            -0.0142     0.0089     0.1273 C.ar    
   3 C3            -1.2032    -0.7072     0.1202 C.ar    
   4 C4            -2.4190    -0.0876    -0.0037 C.ar    
   5 C5            -2.4685     1.3109    -0.0968 C.ar    
   6 C6            -1.2522     2.0473    -0.1033 C.ar    
   7 C7            -3.6305    -0.9794    -0.0538 C.3     
   8 N8            -4.8046    -0.3204     0.5314 N.am    
   9 S9            -5.2090     1.1680    -0.1063 S.o2    
  10 C10           -3.6713     2.0396    -0.1595 C.ar    
  11 C11           -3.6660     3.3926    -0.2632 C.ar    
  12 C12           -2.4674     4.1026    -0.3052 C.ar    
  13 C13           -1.2791     3.4454    -0.2251 C.ar    
  14 O14           -5.6056     0.9469    -1.4528 O.2     
  15 O15           -6.0224     1.8233     0.8572 O.2     
  16 C16           -5.5778    -0.9348     1.6135 C.3     
  17 O17            1.1469     2.0620     0.0022 O.3     
  18 C18            1.5729     2.5483     1.1789 C.2     
  19 C19            2.9095     3.2385     1.2695 C.3     
  20 O20            0.8847     2.4324     2.1653 O.2     
  21 H21            0.9251    -0.5147     0.2277 H       
  22 H22           -1.1691    -1.7825     0.2147 H       
  23 H23           -3.8442    -1.2326    -1.0922 H       
  24 H24           -3.4225    -1.8950     0.4999 H       
  25 H25           -4.6034     3.9265    -0.3142 H       
  26 H26           -2.4822     5.1786    -0.3968 H       
  27 H27           -0.3534     4.0005    -0.2608 H       
  28 H28           -5.1659    -0.6267     2.5746 H       
  29 H29           -6.6174    -0.6146     1.5444 H       
  30 H30           -5.5253    -2.0200     1.5268 H       
  31 H31            3.3814     3.2470     0.2870 H       
  32 H32            2.7667     4.2632     1.6128 H       
  33 H33            3.5470     2.7048     1.9743 H       
@<TRIPOS>BOND
   1    1    2 ar
   2    1   17 1
   3    1    6 ar
   4    2    3 ar
   5    2   21 1
   6    3    4 ar
   7    3   22 1
   8    4    5 ar
   9    4    7 1
  10    5    6 ar
  11    5   10 ar
  12    6   13 ar
  13    7    8 1
  14    7   23 1
  15    7   24 1
  16    8    9 am
  17    8   16 1
  18    9   10 1
  19    9   14 2
  20    9   15 2
  21   10   11 ar
  22   11   12 ar
  23   11   25 1
  24   12   13 ar
  25   12   26 1
  26   13   27 1
  27   16   28 1
  28   16   29 1
  29   16   30 1
  30   17   18 1
  31   18   19 1
  32   18   20 2
  33   19   31 1
  34   19   32 1
  35   19   33 1

#	End of record

