#	Name: ASD01840322
#	Creating user name:	WinNT
#	Creation time:	15. 06. 2019 19:37

#	Modifying user name:	WinNT
#	Modification time:	15. 06. 2019 19:37

#	Program:	/corina/corina34_cracker 3.40 0067  02.08.2006

@<TRIPOS>MOLECULE
ASD01840322
  52   55    0    0    0
SMALL
NO_CHARGES


@<TRIPOS>ATOM
   1 N1             0.1439     1.8821     0.0347 N.3     
   2 C2            -0.0708     0.4343     0.1532 C.3     
   3 C3             0.6013    -0.0797     1.4284 C.3     
   4 C4             2.0998     0.2298     1.3701 C.3     
   5 C5             2.2949     1.7388     1.1980 C.3     
   6 C6             1.5737     2.2001    -0.0705 C.3     
   7 C7             2.7572    -0.2203     2.6492 C.2     
   8 O8             2.0936    -0.7380     3.5225 O.2     
   9 N9             4.0825    -0.0476     2.8228 N.am    
  10 C10            4.6764    -0.3752     4.0467 C.ar    
  11 C11            4.2159    -1.4649     4.7740 C.ar    
  12 C12            4.8041    -1.7856     5.9818 C.ar    
  13 C13            5.8507    -1.0229     6.4669 C.ar    
  14 C14            6.3113     0.0630     5.7452 C.ar    
  15 C15            5.7313     0.3853     4.5339 C.ar    
  16 S16            6.5985    -1.4354     8.0081 S.o2    
  17 O17            7.2001    -0.2433     8.4940 O.2     
  18 O18            5.6281    -2.1708     8.7408 O.2     
  19 N19            7.8369    -2.4866     7.6862 N.am    
  20 N20           -1.9609     3.4308    -3.2001 N.ar    
  21 C21           -1.0566     2.5070    -3.4016 C.ar    
  22 C22           -0.3204     1.9529    -2.3417 C.ar    
  23 C23           -0.5576     2.4000    -1.0341 C.ar    
  24 C24           -1.5415     3.4003    -0.8476 C.ar    
  25 C25           -1.8360     3.8993     0.4285 C.ar    
  26 C26           -2.7908     4.8647     0.5719 C.ar    
  27 C27           -3.4758     5.3587    -0.5368 C.ar    
  28 C28           -3.2115     4.8933    -1.7895 C.ar    
  29 C29           -2.2356     3.9008    -1.9749 C.ar    
  30 F30           -3.0750     5.3460     1.8019 F       
  31 C31            0.6627     0.9427    -2.5938 C.1     
  32 N32            1.4426     0.1412    -2.7938 N.1     
  33 H33           -1.1402     0.2281     0.1979 H       
  34 H34            0.3600    -0.0688    -0.7125 H       
  35 H35            0.1615     0.4128     2.2955 H       
  36 H36            0.4551    -1.1570     1.5080 H       
  37 H37            2.5474    -0.2940     0.5255 H       
  38 H38            1.8816     2.2600     2.0615 H       
  39 H39            3.3586     1.9608     1.1130 H       
  40 H40            1.9968     1.6887    -0.9352 H       
  41 H41            1.6986     3.2764    -0.1883 H       
  42 H42            4.6247     0.3038     2.0993 H       
  43 H43            3.3983    -2.0607     4.3959 H       
  44 H44            4.4462    -2.6327     6.5480 H       
  45 H45            7.1286     0.6569     6.1270 H       
  46 H46            6.0947     1.2307     3.9685 H       
  47 H47            8.0210    -2.7539     6.7722 H       
  48 H48            8.3782    -2.8351     8.4118 H       
  49 H49           -0.8724     2.1611    -4.4080 H       
  50 H50           -1.3110     3.5221     1.2936 H       
  51 H51           -4.2278     6.1218    -0.4007 H       
  52 H52           -3.7516     5.2865    -2.6380 H       
@<TRIPOS>BOND
   1    1    2 1
   2    1    6 1
   3    1   23 1
   4    2    3 1
   5    2   33 1
   6    2   34 1
   7    3    4 1
   8    3   35 1
   9    3   36 1
  10    4    5 1
  11    4    7 1
  12    4   37 1
  13    5    6 1
  14    5   38 1
  15    5   39 1
  16    6   40 1
  17    6   41 1
  18    7    8 2
  19    7    9 am
  20    9   10 1
  21    9   42 1
  22   10   11 ar
  23   10   15 ar
  24   11   12 ar
  25   11   43 1
  26   12   13 ar
  27   12   44 1
  28   13   14 ar
  29   13   16 1
  30   14   15 ar
  31   14   45 1
  32   15   46 1
  33   16   17 2
  34   16   18 2
  35   16   19 am
  36   19   47 1
  37   19   48 1
  38   20   21 ar
  39   20   29 ar
  40   21   22 ar
  41   21   49 1
  42   22   23 ar
  43   22   31 1
  44   23   24 ar
  45   24   25 ar
  46   24   29 ar
  47   25   26 ar
  48   25   50 1
  49   26   27 ar
  50   26   30 1
  51   27   28 ar
  52   27   51 1
  53   28   29 ar
  54   28   52 1
  55   31   32 3

#	End of record

