#	Name: ASD01880890
#	Creating user name:	WinNT
#	Creation time:	15. 06. 2019 19:41

#	Modifying user name:	WinNT
#	Modification time:	15. 06. 2019 19:41

#	Program:	/corina/corina34_cracker 3.40 0067  02.08.2006

@<TRIPOS>MOLECULE
ASD01880890
  45   47    0    0    0
SMALL
NO_CHARGES


@<TRIPOS>ATOM
   1 N1            -0.0158     1.3134     0.0093 N.ar    
   2 C2             0.0021    -0.0041     0.0020 C.ar    
   3 N3             1.1313    -0.6835    -0.0124 N.ar    
   4 C4             2.3010    -0.0550    -0.0202 C.ar    
   5 C5             2.3188     1.3391    -0.0129 C.ar    
   6 C6             1.1111     2.0106     0.0022 C.ar    
   7 C7             3.6226     2.0948    -0.0208 C.3     
   8 O8             4.0223     2.3409    -1.3705 O.3     
   9 C9             1.0761     3.5172     0.0102 C.3     
  10 C10            5.1847     3.0166    -1.5553 C.ar    
  11 C11            5.6324     3.2899    -2.8442 C.ar    
  12 C12            6.8081     3.9738    -3.0298 C.ar    
  13 C13            7.5609     4.3989    -1.9300 C.ar    
  14 C14            7.1064     4.1221    -0.6377 C.ar    
  15 C15            5.9238     3.4399    -0.4572 C.ar    
  16 C16            7.5591     4.4223    -4.2587 C.3     
  17 N17            8.7597     5.1137    -3.7755 N.am    
  18 C18            8.7568     5.0978    -2.4316 C.2     
  19 O19            9.6184     5.5907    -1.7295 O.2     
  20 C20            7.9071     4.5734     0.5566 C.3     
  21 O21            3.4596    -0.7578    -0.0346 O.3     
  22 C22            3.3540    -2.1828    -0.0408 C.3     
  23 C23            9.4279     7.1801    -4.9002 C.3     
  24 C24            9.7921     5.7209    -4.6192 C.3     
  25 H25           -0.9344    -0.5420     0.0084 H       
  26 H26            3.4953     3.0442     0.4993 H       
  27 H27            4.3879     1.5043     0.4829 H       
  28 H28            1.0576     3.8856    -1.0155 H       
  29 H29            0.1829     3.8571     0.5344 H       
  30 H30            1.9623     3.8986     0.5173 H       
  31 H31            5.0559     2.9640    -3.6973 H       
  32 H32            5.5730     3.2267     0.5418 H       
  33 H33            7.8409     3.5590    -4.8615 H       
  34 H34            6.9441     5.1049    -4.8452 H       
  35 H35            7.5852     5.5715     0.8538 H       
  36 H36            7.7498     3.8798     1.3826 H       
  37 H37            8.9656     4.5953     0.2971 H       
  38 H38            4.3519    -2.6211    -0.0523 H       
  39 H39            2.8230    -2.5117     0.8526 H       
  40 H40            2.8064    -2.5027    -0.9273 H       
  41 H41           10.1960     7.6319    -5.5279 H       
  42 H42            8.4675     7.2224    -5.4141 H       
  43 H43            9.3607     7.7256    -3.9590 H       
  44 H44           10.7525     5.6786    -4.1053 H       
  45 H45            9.8593     5.1754    -5.5604 H       
@<TRIPOS>BOND
   1    1    2 ar
   2    1    6 ar
   3    2    3 ar
   4    2   25 1
   5    3    4 ar
   6    4    5 ar
   7    4   21 1
   8    5    6 ar
   9    5    7 1
  10    6    9 1
  11    7    8 1
  12    7   26 1
  13    7   27 1
  14    8   10 1
  15    9   28 1
  16    9   29 1
  17    9   30 1
  18   10   11 ar
  19   10   15 ar
  20   11   12 ar
  21   11   31 1
  22   12   13 ar
  23   12   16 1
  24   13   14 ar
  25   13   18 1
  26   14   15 ar
  27   14   20 1
  28   15   32 1
  29   16   17 1
  30   16   33 1
  31   16   34 1
  32   17   18 am
  33   17   24 1
  34   18   19 2
  35   20   35 1
  36   20   36 1
  37   20   37 1
  38   21   22 1
  39   22   38 1
  40   22   39 1
  41   22   40 1
  42   23   24 1
  43   23   41 1
  44   23   42 1
  45   23   43 1
  46   24   44 1
  47   24   45 1

#	End of record

