#	Name: ASD04370041
#	Creating user name:	WinNT
#	Creation time:	15. 06. 2019 20:49

#	Modifying user name:	WinNT
#	Modification time:	15. 06. 2019 20:49

#	Program:	/corina/corina34_cracker 3.40 0067  02.08.2006

@<TRIPOS>MOLECULE
ASD04370041
  64   64    0    0    0
SMALL
NO_CHARGES


@<TRIPOS>ATOM
   1 C1             0.9909     1.9973    -0.3670 C.2     
   2 C2             0.3700     0.6311    -0.2294 C.3     
   3 C3             1.4554    -0.3897     0.1184 C.3     
   4 C4             0.8482    -1.7939     0.1356 C.3     
   5 O5             2.1795     2.1400    -0.2037 O.2     
   6 O6             0.2242     3.0548    -0.6764 O.3     
   7 N7             2.0106    -0.0815     1.4386 N.am    
   8 C8             3.3459    -0.0647     1.6210 C.2     
   9 C9             3.9154     0.1371     3.0016 C.3     
  10 C10            5.4436     0.1146     2.9312 C.3     
  11 C11            6.0218     0.3194     4.3328 C.3     
  12 C12            7.5500     0.2970     4.2624 C.3     
  13 C13            8.1281     0.5018     5.6641 C.3     
  14 C14            9.6564     0.4793     5.5937 C.3     
  15 C15           10.2345     0.6841     6.9953 C.3     
  16 O16            4.0891    -0.2119     0.6740 O.2     
  17 O17           11.6619     0.6631     6.9296 O.3     
  18 C18           12.3047     0.8467     8.1926 C.3     
  19 C19           13.7995     0.8072     8.0059 C.ar    
  20 C20           14.4944     1.9730     7.7435 C.ar    
  21 C21           15.8656     1.9367     7.5722 C.ar    
  22 C22           16.5420     0.7347     7.6638 C.ar    
  23 C23           15.8473    -0.4310     7.9271 C.ar    
  24 C24           14.4766    -0.3941     8.1027 C.ar    
  25 C25           18.0368     0.6950     7.4760 C.3     
  26 F26           18.6669     0.8756     8.7119 F       
  27 F27           18.4068    -0.5434     6.9405 F       
  28 F28           18.4242     1.7158     6.6014 F       
  29 N29            1.8619    -2.7603     0.5790 N.3     
  30 C30            1.2415    -4.0358     0.9614 C.3     
  31 C31            2.8852    -2.9618    -0.4555 C.3     
  32 H32           -0.3781     0.6501     0.5631 H       
  33 H33           -0.1041     0.3510    -1.1700 H       
  34 H34            2.2482    -0.3457    -0.6284 H       
  35 H35            0.0014    -1.8152     0.8215 H       
  36 H36            0.5104    -2.0560    -0.8670 H       
  37 H37            0.6675     3.9107    -0.7538 H       
  38 H38            1.4172     0.1105     2.1815 H       
  39 H39            3.5838     1.0982     3.3945 H       
  40 H40            3.5701    -0.6622     3.6574 H       
  41 H41            5.7751    -0.8465     2.5382 H       
  42 H42            5.7889     0.9139     2.2753 H       
  43 H43            5.6902     1.2806     4.7257 H       
  44 H44            5.6765    -0.4798     4.9886 H       
  45 H45            7.8815    -0.6642     3.8695 H       
  46 H46            7.8953     1.0962     3.6066 H       
  47 H47            7.7966     1.4629     6.0570 H       
  48 H48            7.7829    -0.2975     6.3199 H       
  49 H49            9.9879    -0.4818     5.2008 H       
  50 H50           10.0016     1.2786     4.9379 H       
  51 H51            9.9030     1.6453     7.3883 H       
  52 H52            9.8893    -0.1151     7.6512 H       
  53 H53           12.0161     1.8113     8.6103 H       
  54 H54           12.0023     0.0509     8.8732 H       
  55 H55           13.9659     2.9122     7.6719 H       
  56 H56           16.4084     2.8475     7.3664 H       
  57 H57           16.3757    -1.3702     7.9983 H       
  58 H58           13.9343    -1.3043     8.3121 H       
  59 H59            0.7116    -4.4532     0.1052 H       
  60 H60            2.0143    -4.7329     1.2855 H       
  61 H61            0.5384    -3.8677     1.7772 H       
  62 H62            3.3890    -2.0165    -0.6572 H       
  63 H63            3.6134    -3.6948    -0.1083 H       
  64 H64            2.4124    -3.3236    -1.3686 H       
@<TRIPOS>BOND
   1    1    2 1
   2    1    5 2
   3    1    6 1
   4    2    3 1
   5    2   32 1
   6    2   33 1
   7    3    4 1
   8    3    7 1
   9    3   34 1
  10    4   29 1
  11    4   35 1
  12    4   36 1
  13    6   37 1
  14    7    8 am
  15    7   38 1
  16    8    9 1
  17    8   16 2
  18    9   10 1
  19    9   39 1
  20    9   40 1
  21   10   11 1
  22   10   41 1
  23   10   42 1
  24   11   12 1
  25   11   43 1
  26   11   44 1
  27   12   13 1
  28   12   45 1
  29   12   46 1
  30   13   14 1
  31   13   47 1
  32   13   48 1
  33   14   15 1
  34   14   49 1
  35   14   50 1
  36   15   17 1
  37   15   51 1
  38   15   52 1
  39   17   18 1
  40   18   19 1
  41   18   53 1
  42   18   54 1
  43   19   20 ar
  44   19   24 ar
  45   20   21 ar
  46   20   55 1
  47   21   22 ar
  48   21   56 1
  49   22   23 ar
  50   22   25 1
  51   23   24 ar
  52   23   57 1
  53   24   58 1
  54   25   26 1
  55   25   27 1
  56   25   28 1
  57   29   30 1
  58   29   31 1
  59   30   59 1
  60   30   60 1
  61   30   61 1
  62   31   62 1
  63   31   63 1
  64   31   64 1

#	End of record

