#	Name: ASD01881459
#	Creating user name:	WinNT
#	Creation time:	15. 06. 2019 19:42

#	Modifying user name:	WinNT
#	Modification time:	15. 06. 2019 19:42

#	Program:	/corina/corina34_cracker 3.40 0067  02.08.2006

@<TRIPOS>MOLECULE
ASD01881459
  51   55    0    0    0
SMALL
NO_CHARGES


@<TRIPOS>ATOM
   1 C1             0.0217     1.5028     0.0499 C.3     
   2 C2             1.1025    10.1115     4.2525 C.ar    
   3 C3             1.2919     9.0235     3.4273 C.ar    
   4 C4            -0.0136    10.1732     5.0785 C.ar    
   5 C5            -0.9428     9.1371     5.0749 C.ar    
   6 C6            -0.7577     8.0469     4.2514 C.ar    
   7 C7             0.3624     7.9834     3.4215 C.ar    
   8 C8             0.5637     6.8137     2.5353 C.2     
   9 C9             0.5337     6.9653     1.1615 C.2     
  10 C10            0.7945     5.5298     3.0870 C.2     
  11 C11            0.9771     4.4682     2.2799 C.2     
  12 N12            0.9435     4.6077     0.9222 N.pl3   
  13 C13            0.7279     5.8369     0.3471 C.2     
  14 C14            1.0908     3.7343    -0.1123 C.2     
  15 N15            0.9631     4.4136    -1.2227 N.2     
  16 N16            0.7493     5.6559    -0.9646 N.2     
  17 C17            1.3533     2.2547     0.0016 C.3     
  18 Cl18          -2.3354     9.2172     6.1083 Cl      
  19 N19           -0.2028    11.2760     5.9128 N.3     
  20 C20           -1.3756    12.0570     5.4955 C.3     
  21 C21            0.0733    -0.0263     0.0476 C.3     
  22 C22           -0.3042     0.7244     1.3262 C.3     
  23 C23           -1.5949    13.2084     6.4797 C.3     
  24 N24           -0.3916    14.0511     6.5198 N.3     
  25 C25            0.7811    13.2700     6.9372 C.3     
  26 C26            1.0005    12.1186     5.9529 C.3     
  27 C27            0.2957     8.3205     0.5467 C.3     
  28 F28            1.5243     8.9193     0.2481 F       
  29 F29           -0.4499     8.1751    -0.6281 F       
  30 F30           -0.4081     9.1250     1.4492 F       
  31 H31           -0.8065     1.9792    -0.4747 H       
  32 H32            1.8245    10.9147     4.2603 H       
  33 H33            2.1593     8.9766     2.7855 H       
  34 H34           -1.4786     7.2427     4.2490 H       
  35 H35            0.8242     5.4022     4.1591 H       
  36 H36            1.1531     3.4940     2.7117 H       
  37 H37            1.9167     2.0548     0.9130 H       
  38 H38            1.9283     1.9202    -0.8619 H       
  39 H39           -1.2077    12.4595     4.4965 H       
  40 H40           -2.2558    11.4143     5.4857 H       
  41 H41           -0.7211    -0.5559    -0.4783 H       
  42 H42            1.0560    -0.4966     0.0116 H       
  43 H43            0.4301     0.7480     2.1314 H       
  44 H44           -1.3469     0.6887     1.6415 H       
  45 H45           -2.4469    13.8062     6.1560 H       
  46 H46           -1.7898    12.8052     7.4735 H       
  47 H47           -0.2315    14.4954     5.6282 H       
  48 H48            1.6614    13.9127     6.9469 H       
  49 H49            0.6133    12.8675     7.9361 H       
  50 H50            1.8525    11.5208     6.2766 H       
  51 H51            1.1954    12.5219     4.9592 H       
@<TRIPOS>BOND
   1    1   21 1
   2    1   17 1
   3    1   22 1
   4    1   31 1
   5    2    3 ar
   6    2    4 ar
   7    2   32 1
   8    3    7 ar
   9    3   33 1
  10    4    5 ar
  11    4   19 1
  12    5    6 ar
  13    5   18 1
  14    6    7 ar
  15    6   34 1
  16    7    8 1
  17    8    9 2
  18    8   10 1
  19    9   27 1
  20    9   13 1
  21   10   11 2
  22   10   35 1
  23   11   12 1
  24   11   36 1
  25   12   13 1
  26   12   14 1
  27   13   16 2
  28   14   15 2
  29   14   17 1
  30   15   16 1
  31   17   37 1
  32   17   38 1
  33   19   20 1
  34   19   26 1
  35   20   23 1
  36   20   39 1
  37   20   40 1
  38   21   22 1
  39   21   41 1
  40   21   42 1
  41   22   43 1
  42   22   44 1
  43   23   24 1
  44   23   45 1
  45   23   46 1
  46   24   25 1
  47   24   47 1
  48   25   26 1
  49   25   48 1
  50   25   49 1
  51   26   50 1
  52   26   51 1
  53   27   28 1
  54   27   29 1
  55   27   30 1

#	End of record

