#	Name: ASD01812548
#	Creating user name:	WinNT
#	Creation time:	15. 06. 2019 19:28

#	Modifying user name:	WinNT
#	Modification time:	15. 06. 2019 19:28

#	Program:	/corina/corina34_cracker 3.40 0067  02.08.2006

@<TRIPOS>MOLECULE
ASD01812548
  52   55    0    0    0
SMALL
NO_CHARGES


@<TRIPOS>ATOM
   1 O1            -0.0173     1.4248     0.0099 O.3     
   2 C2             0.0021    -0.0041     0.0020 C.3     
   3 H3             0.5121    -0.3565    -0.8945 H       
   4 C4             0.7396    -0.5125     1.2435 C.3     
   5 O5             0.7074    -1.9411     1.2633 O.3     
   6 C6            -0.6087    -2.4942     1.3259 C.3     
   7 C7            -1.4004    -2.0654     0.0877 C.3     
   8 C8            -1.4345    -0.5356     0.0160 C.3     
   9 H9            -1.9603    -0.1423     0.8861 H       
  10 N10           -2.1241    -0.1162    -1.2065 N.am    
  11 C11           -3.4675    -0.0083    -1.2192 C.2     
  12 O12           -4.1067    -0.2590    -0.2166 O.2     
  13 C13           -4.1650     0.4158    -2.4557 C.ar    
  14 C14           -5.5531     0.5314    -2.4626 C.ar    
  15 C15           -6.1821     0.9267    -3.6303 C.ar    
  16 C16           -7.6819     1.0651    -3.6825 C.3     
  17 C17           -8.2855    -0.2081    -4.2171 C.ar    
  18 C18           -8.4828    -0.3730    -5.5797 C.ar    
  19 C19           -9.0406    -1.5606    -6.0268 C.ar    
  20 C20           -9.3795    -2.5351    -5.1051 C.ar    
  21 Cl21         -10.0783    -4.0274    -5.6514 Cl      
  22 N22           -9.1770    -2.3430    -3.8152 N.ar    
  23 C23           -8.6437    -1.2277    -3.3558 C.ar    
  24 C24           -5.4085     1.1948    -4.7549 C.ar    
  25 C25           -6.1183     1.6099    -6.0157 C.3     
  26 C26           -5.1413     2.2645    -6.9907 C.3     
  27 C27           -3.9297     1.3395    -7.1552 C.3     
  28 C28           -3.1337     1.3491    -5.8520 C.3     
  29 C29           -4.0361     1.0652    -4.6783 C.ar    
  30 N30           -3.4648     0.6879    -3.5459 N.ar    
  31 H31            0.8606     1.8301     0.0037 H       
  32 H32            1.7748    -0.1726     1.2160 H       
  33 H33            0.2534    -0.1256     2.1390 H       
  34 H34           -0.5448    -3.5819     1.3577 H       
  35 H35           -1.1125    -2.1332     2.2225 H       
  36 H36           -0.9193    -2.4604    -0.8071 H       
  37 H37           -2.4182    -2.4497     0.1550 H       
  38 H38           -1.6139     0.0839    -2.0069 H       
  39 H39           -6.1276     0.3163    -1.5738 H       
  40 H40           -8.0643     1.2553    -2.6797 H       
  41 H41           -7.9476     1.8957    -4.3363 H       
  42 H42           -8.2088     0.4056    -6.2761 H       
  43 H43           -9.2088    -1.7229    -7.0812 H       
  44 H44           -8.4892    -1.1081    -2.2937 H       
  45 H45           -6.5604     0.7313    -6.4854 H       
  46 H46           -6.9076     2.3194    -5.7670 H       
  47 H47           -5.6270     2.4085    -7.9559 H       
  48 H48           -4.8173     3.2270    -6.5950 H       
  49 H49           -4.2689     0.3261    -7.3699 H       
  50 H50           -3.3021     1.6994    -7.9705 H       
  51 H51           -2.3560     0.5870    -5.9002 H       
  52 H52           -2.6703     2.3270    -5.7210 H       
@<TRIPOS>BOND
   1    1    2 1
   2    1   31 1
   3    2    3 1
   4    2    8 1
   5    2    4 1
   6    4    5 1
   7    4   32 1
   8    4   33 1
   9    5    6 1
  10    6    7 1
  11    6   34 1
  12    6   35 1
  13    7    8 1
  14    7   36 1
  15    7   37 1
  16    8    9 1
  17    8   10 1
  18   10   11 am
  19   10   38 1
  20   11   12 2
  21   11   13 1
  22   13   30 ar
  23   13   14 ar
  24   14   15 ar
  25   14   39 1
  26   15   16 1
  27   15   24 ar
  28   16   17 1
  29   16   40 1
  30   16   41 1
  31   17   23 ar
  32   17   18 ar
  33   18   19 ar
  34   18   42 1
  35   19   20 ar
  36   19   43 1
  37   20   21 1
  38   20   22 ar
  39   22   23 ar
  40   23   44 1
  41   24   29 ar
  42   24   25 1
  43   25   26 1
  44   25   45 1
  45   25   46 1
  46   26   27 1
  47   26   47 1
  48   26   48 1
  49   27   28 1
  50   27   49 1
  51   27   50 1
  52   28   29 1
  53   28   51 1
  54   28   52 1
  55   29   30 ar

#	End of record

