#	Name: ASD00170025
#	Creating user name:	WinNT
#	Creation time:	15. 06. 2019 18:31

#	Modifying user name:	WinNT
#	Modification time:	15. 06. 2019 18:31

#	Program:	/corina/corina34_cracker 3.40 0067  02.08.2006

@<TRIPOS>MOLECULE
ASD00170025
  33   35    0    0    0
SMALL
NO_CHARGES


@<TRIPOS>ATOM
   1 O1            -0.0179     1.4258     0.0107 O.3     
   2 C2             6.0353     6.0308     0.3357 C.2     
   3 N3             4.9192     5.3508     0.3193 N.2     
   4 N4             4.8734     4.0012    -0.0234 N.am    
   5 C5             5.9664     3.3006    -0.3610 C.2     
   6 C6             7.2473     3.9316    -0.3803 C.2     
   7 C7             7.3104     5.3541    -0.0272 C.2     
   8 O8             5.8661     2.1220    -0.6516 O.2     
   9 C9             8.4844     3.4150    -0.6899 C.2     
  10 S10            9.7025     4.5949    -0.5579 S.3     
  11 C11            8.5645     5.8380    -0.0798 C.2     
  12 N12            8.7093     2.1012    -1.0619 N.pl3   
  13 C13            6.0305     7.4575     0.7050 C.2     
  14 O14            4.8720     8.0663     1.0278 O.3     
  15 O15            7.0711     8.0852     0.7186 O.2     
  16 C16            3.6350     3.3488    -0.0146 C.ar    
  17 C17            2.7936     3.4695     1.0842 C.ar    
  18 C18            1.5725     2.8258     1.0920 C.ar    
  19 C19            1.1850     2.0591     0.0023 C.ar    
  20 C20            2.0248     1.9380    -1.0957 C.ar    
  21 C21            3.2442     2.5849    -1.1071 C.ar    
  22 C22           -0.3525     0.6536    -1.1442 C.3     
  23 H23            8.8347     6.8593     0.1443 H       
  24 H24            7.9672     1.4790    -1.1173 H       
  25 H25            9.6090     1.8024    -1.2671 H       
  26 H26            4.9190     9.0030     1.2631 H       
  27 H27            3.0951     4.0662     1.9324 H       
  28 H28            0.9183     2.9195     1.9462 H       
  29 H29            1.7225     1.3407    -1.9432 H       
  30 H30            3.8975     2.4908    -1.9620 H       
  31 H31           -1.3355     0.2029    -1.0076 H       
  32 H32           -0.3679     1.3001    -2.0216 H       
  33 H33            0.3907    -0.1313    -1.2843 H       
@<TRIPOS>BOND
   1    1   22 1
   2    1   19 1
   3    2    3 2
   4    2   13 1
   5    2    7 1
   6    3    4 1
   7    4    5 am
   8    4   16 1
   9    5    6 1
  10    5    8 2
  11    6    7 1
  12    6    9 2
  13    7   11 2
  14    9   10 1
  15    9   12 1
  16   10   11 1
  17   11   23 1
  18   12   24 1
  19   12   25 1
  20   13   14 1
  21   13   15 2
  22   14   26 1
  23   16   17 ar
  24   16   21 ar
  25   17   18 ar
  26   17   27 1
  27   18   19 ar
  28   18   28 1
  29   19   20 ar
  30   20   21 ar
  31   20   29 1
  32   21   30 1
  33   22   31 1
  34   22   32 1
  35   22   33 1

#	End of record

