#	Name: ASD01916671
#	Creating user name:	WinNT
#	Creation time:	15. 06. 2019 20:07

#	Modifying user name:	WinNT
#	Modification time:	15. 06. 2019 20:07

#	Program:	/corina/corina34_cracker 3.40 0067  02.08.2006

@<TRIPOS>MOLECULE
ASD01916671
  46   49    0    0    0
SMALL
NO_CHARGES


@<TRIPOS>ATOM
   1 C1            -0.0171     1.4103     0.0098 C.ar    
   2 C2             0.0021    -0.0041     0.0020 C.ar    
   3 C3            -1.1914    -0.7259     0.0414 C.ar    
   4 C4            -2.3839    -0.0650     0.0741 C.ar    
   5 C5            -2.4218     1.3383     0.0663 C.ar    
   6 C6            -1.2401     2.0767     0.0357 C.ar    
   7 N7             1.1600     2.0757     0.0021 N.2     
   8 C8             2.3197     1.4680    -0.0397 C.2     
   9 N9             2.4197     0.1198    -0.1575 N.am    
  10 C10            1.3099    -0.6625    -0.0625 C.2     
  11 C11           -3.7180     2.0345     0.0902 C.2     
  12 O12            1.4011    -1.8762    -0.0319 O.2     
  13 C13           -4.8631     1.3253     0.1194 C.2     
  14 C14           -6.1543     2.0188     0.1432 C.2     
  15 C15            3.5359     2.3451     0.1019 C.3     
  16 C16            4.7921     1.6923    -0.4309 C.3     
  17 C17            4.8962     0.2358    -0.0272 C.3     
  18 C18            3.6790    -0.5619    -0.4370 C.3     
  19 C19            6.1343    -0.3745    -0.6871 C.3     
  20 C20            5.0552     0.1525     1.4922 C.3     
  21 N21           -7.3251     1.4404     0.1722 N.2     
  22 C22           -8.3758     2.2237     0.1901 C.2     
  23 C23           -8.1240     3.5395     0.1766 C.2     
  24 S24           -6.3765     3.7665     0.1449 S.3     
  25 C25           -9.7801     1.6781     0.2235 C.3     
  26 H26           -1.1709    -1.8057     0.0456 H       
  27 H27           -3.3064    -0.6257     0.1060 H       
  28 H28           -1.2723     3.1562     0.0324 H       
  29 H29           -3.7514     3.1140     0.0843 H       
  30 H30           -4.8297     0.2458     0.1253 H       
  31 H31            3.3647     3.2744    -0.4412 H       
  32 H32            3.6807     2.5781     1.1569 H       
  33 H33            4.7909     1.7585    -1.5189 H       
  34 H34            5.6597     2.2287    -0.0467 H       
  35 H35            3.6880    -1.5123     0.0967 H       
  36 H36            3.7373    -0.7640    -1.5065 H       
  37 H37            7.0236     0.1633    -0.3584 H       
  38 H38            6.2180    -1.4233    -0.4025 H       
  39 H39            6.0434    -0.2982    -1.7706 H       
  40 H40            4.1895     0.6072     1.9736 H       
  41 H41            5.1310    -0.8925     1.7928 H       
  42 H42            5.9585     0.6834     1.7926 H       
  43 H43           -8.8644     4.3258     0.1873 H       
  44 H44          -10.0968     1.5530     1.2589 H       
  45 H45          -10.4519     2.3729    -0.2805 H       
  46 H46           -9.8074     0.7137    -0.2838 H       
@<TRIPOS>BOND
   1    1    2 ar
   2    1    7 1
   3    1    6 ar
   4    2    3 ar
   5    2   10 1
   6    3    4 ar
   7    3   26 1
   8    4    5 ar
   9    4   27 1
  10    5    6 ar
  11    5   11 1
  12    6   28 1
  13    7    8 2
  14    8    9 1
  15    8   15 1
  16    9   10 am
  17    9   18 1
  18   10   12 2
  19   11   13 2
  20   11   29 1
  21   13   14 1
  22   13   30 1
  23   14   21 2
  24   14   24 1
  25   15   16 1
  26   15   31 1
  27   15   32 1
  28   16   17 1
  29   16   33 1
  30   16   34 1
  31   17   18 1
  32   17   19 1
  33   17   20 1
  34   18   35 1
  35   18   36 1
  36   19   37 1
  37   19   38 1
  38   19   39 1
  39   20   40 1
  40   20   41 1
  41   20   42 1
  42   21   22 1
  43   22   23 2
  44   22   25 1
  45   23   24 1
  46   23   43 1
  47   25   44 1
  48   25   45 1
  49   25   46 1

#	End of record

