#	Name: ASD01150479
#	Creating user name:	WinNT
#	Creation time:	15. 06. 2019 19:04

#	Modifying user name:	WinNT
#	Modification time:	15. 06. 2019 19:04

#	Program:	/corina/corina34_cracker 3.40 0067  02.08.2006

@<TRIPOS>MOLECULE
ASD01150479
  49   51    0    0    0
SMALL
NO_CHARGES


@<TRIPOS>ATOM
   1 C1             1.9144     1.4015     0.9688 C.ar    
   2 C2             1.9596     0.0213     0.9430 C.ar    
   3 C3             0.4927     0.0046    -0.9573 C.ar    
   4 C4             0.4446     1.3911    -0.9341 C.ar    
   5 C5             1.1564     2.0910     0.0299 C.ar    
   6 N6             1.1106     3.4892     0.0568 N.am    
   7 C7            -0.0779     4.1147    -0.0077 C.2     
   8 N8            -0.1589     5.4581     0.0162 N.am    
   9 C9             0.9637     6.2013     0.1061 C.2     
  10 C10            2.2668     5.5231     0.1771 C.2     
  11 N11            2.3024     4.2168     0.1564 N.2     
  12 O12            0.8988     7.4163     0.1279 O.2     
  13 C13           -1.4669     6.1139    -0.0561 C.3     
  14 O14           -1.0968     3.4557    -0.0895 O.2     
  15 C15           -2.0091     6.3080     1.3366 C.ar    
  16 C16           -1.7236     7.4678     2.0326 C.ar    
  17 C17           -2.2200     7.6490     3.3115 C.ar    
  18 C18           -3.0055     6.6644     3.8955 C.ar    
  19 C19           -3.2905     5.5008     3.1939 C.ar    
  20 C20           -2.7958     5.3281     1.9132 C.ar    
  21 O21            3.4152     6.2432     0.2677 O.3     
  22 C22            4.6387     5.5077     0.3322 C.3     
  23 C23            1.2519    -0.6785    -0.0157 C.ar    
  24 N24           -0.2232    -0.7049    -1.9279 N.am    
  25 C25            0.2667    -1.8622    -2.4148 C.2     
  26 C26           -0.5545    -2.6831    -3.3755 C.3     
  27 O27            1.3685    -2.2429    -2.0799 O.2     
  28 F28           -4.0545     4.5405     3.7589 F       
  29 O29           -3.4945     6.8393     5.1526 O.3     
  30 C30           -4.7716     7.4696     5.2700 C.3     
  31 F31           -1.9401     8.7825     3.9912 F       
  32 H32            2.4650     1.9454     1.7220 H       
  33 H33            2.5496    -0.5122     1.6735 H       
  34 H34           -0.1452     1.9245    -1.6648 H       
  35 H35           -1.3609     7.0833    -0.5430 H       
  36 H36           -2.1539     5.4921    -0.6301 H       
  37 H37           -1.1121     8.2332     1.5779 H       
  38 H38           -3.0171     4.4232     1.3669 H       
  39 H39            5.4764     6.2015     0.4020 H       
  40 H40            4.6282     4.8613     1.2098 H       
  41 H41            4.7447     4.8993    -0.5659 H       
  42 H42            1.2893    -1.7577    -0.0331 H       
  43 H43           -1.0721    -0.3638    -2.2503 H       
  44 H44           -1.5071    -2.1853    -3.5565 H       
  45 H45           -0.0149    -2.7885    -4.3166 H       
  46 H46           -0.7354    -3.6694    -2.9480 H       
  47 H47           -4.7264     8.4667     4.8320 H       
  48 H48           -5.5196     6.8757     4.7448 H       
  49 H49           -5.0431     7.5473     6.3228 H       
@<TRIPOS>BOND
   1    1    2 ar
   2    1    5 ar
   3    1   32 1
   4    2   23 ar
   5    2   33 1
   6    3    4 ar
   7    3   24 1
   8    3   23 ar
   9    4    5 ar
  10    4   34 1
  11    5    6 1
  12    6    7 am
  13    6   11 1
  14    7    8 am
  15    7   14 2
  16    8    9 am
  17    8   13 1
  18    9   10 1
  19    9   12 2
  20   10   11 2
  21   10   21 1
  22   13   15 1
  23   13   35 1
  24   13   36 1
  25   15   16 ar
  26   15   20 ar
  27   16   17 ar
  28   16   37 1
  29   17   18 ar
  30   17   31 1
  31   18   19 ar
  32   18   29 1
  33   19   20 ar
  34   19   28 1
  35   20   38 1
  36   21   22 1
  37   22   39 1
  38   22   40 1
  39   22   41 1
  40   23   42 1
  41   24   25 am
  42   24   43 1
  43   25   26 1
  44   25   27 2
  45   26   44 1
  46   26   45 1
  47   26   46 1
  48   29   30 1
  49   30   47 1
  50   30   48 1
  51   30   49 1

#	End of record

