#	Name: ASD01913101
#	Creating user name:	WinNT
#	Creation time:	15. 06. 2019 20:00

#	Modifying user name:	WinNT
#	Modification time:	15. 06. 2019 20:00

#	Program:	/corina/corina34_cracker 3.40 0067  02.08.2006

@<TRIPOS>MOLECULE
ASD01913101
  38   39    0    0    0
SMALL
NO_CHARGES


@<TRIPOS>ATOM
   1 C1            -0.0168     1.3858     0.0097 C.ar    
   2 C2             0.0021    -0.0041     0.0020 C.ar    
   3 C3             1.2130    -0.6864    -0.0128 C.ar    
   4 C4             2.3993     0.0127    -0.0200 C.ar    
   5 C5             2.3847     1.4101    -0.0128 C.ar    
   6 C6             1.1651     2.0923     0.0022 C.ar    
   7 O7            -1.1649    -0.6967     0.0095 O.3     
   8 C8             3.6537     2.1632    -0.0199 C.2     
   9 O9             4.7138     1.5680    -0.0321 O.2     
  10 N10            3.6375     3.5109    -0.0130 N.am    
  11 N11            5.9872     3.5691    -0.0330 N.ar    
  12 C12            4.8373     4.2230    -0.0197 C.ar    
  13 C13            7.1448     4.2027    -0.0397 C.ar    
  14 C14            7.1972     5.5843    -0.0328 C.ar    
  15 C15            6.0114     6.3097    -0.0198 C.ar    
  16 C16            4.8130     5.6153    -0.0130 C.ar    
  17 F17            3.6366     6.2796    -0.0003 F       
  18 F18            8.3880     6.2225    -0.0389 F       
  19 C19           -1.0730    -2.1227     0.0009 C.3     
  20 C20           -2.4797    -2.7245     0.0112 C.3     
  21 C21           -2.3813    -4.2513     0.0021 C.3     
  22 C22           -3.7880    -4.8531     0.0123 C.3     
  23 H23           -0.9597     1.9123     0.0170 H       
  24 H24            1.2234    -1.7663    -0.0183 H       
  25 H25            3.3397    -0.5183    -0.0307 H       
  26 H26            1.1496     3.1722     0.0074 H       
  27 H27            2.7917     3.9857    -0.0033 H       
  28 H28            8.0633     3.6346    -0.0505 H       
  29 H29            6.0243     7.3896    -0.0141 H       
  30 H30           -0.5455    -2.4475    -0.8959 H       
  31 H31           -0.5284    -2.4570     0.8840 H       
  32 H32           -3.0073    -2.3998     0.9080 H       
  33 H33           -3.0243    -2.3902    -0.8718 H       
  34 H34           -1.8537    -4.5760    -0.8948 H       
  35 H35           -1.8367    -4.5856     0.8851 H       
  36 H36           -4.3155    -4.5284     0.9092 H       
  37 H37           -4.3326    -4.5188    -0.8707 H       
  38 H38           -3.7179    -5.9408     0.0058 H       
@<TRIPOS>BOND
   1    1    2 ar
   2    1    6 ar
   3    1   23 1
   4    2    3 ar
   5    2    7 1
   6    3    4 ar
   7    3   24 1
   8    4    5 ar
   9    4   25 1
  10    5    6 ar
  11    5    8 1
  12    6   26 1
  13    7   19 1
  14    8    9 2
  15    8   10 am
  16   10   12 1
  17   10   27 1
  18   11   12 ar
  19   11   13 ar
  20   12   16 ar
  21   13   14 ar
  22   13   28 1
  23   14   15 ar
  24   14   18 1
  25   15   16 ar
  26   15   29 1
  27   16   17 1
  28   19   20 1
  29   19   30 1
  30   19   31 1
  31   20   21 1
  32   20   32 1
  33   20   33 1
  34   21   22 1
  35   21   34 1
  36   21   35 1
  37   22   36 1
  38   22   37 1
  39   22   38 1

#	End of record

