#	Name: ASD03092876
#	Creating user name:	WinNT
#	Creation time:	15. 06. 2019 20:33

#	Modifying user name:	WinNT
#	Modification time:	15. 06. 2019 20:33

#	Program:	/corina/corina34_cracker 3.40 0067  02.08.2006

@<TRIPOS>MOLECULE
ASD03092876
  48   50    0    0    0
SMALL
NO_CHARGES


@<TRIPOS>ATOM
   1 C1            -0.0187     1.5258     0.0104 C.3     
   2 C2             0.0021    -0.0041     0.0020 C.3     
   3 C3            -1.2267    -0.6840     0.6092 C.3     
   4 C4             0.6786    -0.6949    -1.1837 C.3     
   5 H5             0.2483    -1.6340    -1.5315 H       
   6 C6             1.2822     0.1970    -2.2705 C.3     
   7 N7             1.7734    -0.6374    -3.3699 N.pl3   
   8 C8             2.3709    -0.0431    -4.4856 C.ar    
   9 C9             2.5043     1.3376    -4.5501 C.ar    
  10 C10            3.0949     1.9226    -5.6534 C.ar    
  11 C11            3.5536     1.1335    -6.6943 C.ar    
  12 F12            4.1309     1.7078    -7.7723 F       
  13 C13            3.4219    -0.2437    -6.6319 C.ar    
  14 C14            2.8369    -0.8332    -5.5286 C.ar    
  15 C15            2.6991    -2.3323    -5.4588 C.3     
  16 F16            3.2374    -2.9045    -6.6164 F       
  17 F17            3.3863    -2.8120    -4.3385 F       
  18 F18            1.3458    -2.6719    -5.3565 F       
  19 C19            1.3553    -0.6933     0.1885 C.3     
  20 H20            2.2307    -0.0568     0.3173 H       
  21 C21            1.3757    -1.9902     0.9558 C.ar    
  22 C22            0.6516    -3.0752     0.4986 C.ar    
  23 C23            0.6703    -4.2649     1.2024 C.ar    
  24 C24            1.4136    -4.3695     2.3632 C.ar    
  25 C25            2.1385    -3.2847     2.8199 C.ar    
  26 C26            2.1231    -2.0964     2.1138 C.ar    
  27 S27            1.4366    -5.8855     3.2609 S.o2    
  28 N28            2.6922    -6.7876     2.6675 N.am    
  29 O29            1.7784    -5.5539     4.5997 O.2     
  30 O30            0.2454    -6.5769     2.9113 O.2     
  31 H31            1.0039     1.9031     0.0027 H       
  32 H32           -0.5459     1.8868    -0.8726 H       
  33 H33           -0.5289     1.8773     0.9072 H       
  34 H34           -2.0035    -0.7757    -0.1499 H       
  35 H35           -0.9523    -1.6754     0.9699 H       
  36 H36           -1.5997    -0.0854     1.4403 H       
  37 H37            0.5196     0.8797    -2.6452 H       
  38 H38            2.1093     0.7705    -1.8521 H       
  39 H39            1.6841    -1.6022    -3.3239 H       
  40 H40            2.1463     1.9536    -3.7384 H       
  41 H41            3.1986     2.9964    -5.7041 H       
  42 H42            3.7808    -0.8574    -7.4450 H       
  43 H43            0.0709    -2.9935    -0.4084 H       
  44 H44            0.1040    -5.1124     0.8455 H       
  45 H45            2.7189    -3.3664     3.7270 H       
  46 H46            2.6925    -1.2500     2.4686 H       
  47 H47            3.2458    -6.4370     1.9523 H       
  48 H48            2.8740    -7.6667     3.0350 H       
@<TRIPOS>BOND
   1    1    2 1
   2    1   31 1
   3    1   32 1
   4    1   33 1
   5    2   19 1
   6    2    3 1
   7    2    4 1
   8    3   34 1
   9    3   35 1
  10    3   36 1
  11    4    5 1
  12    4    6 1
  13    4   19 1
  14    6    7 1
  15    6   37 1
  16    6   38 1
  17    7    8 1
  18    7   39 1
  19    8   14 ar
  20    8    9 ar
  21    9   10 ar
  22    9   40 1
  23   10   11 ar
  24   10   41 1
  25   11   12 1
  26   11   13 ar
  27   13   14 ar
  28   13   42 1
  29   14   15 1
  30   15   16 1
  31   15   17 1
  32   15   18 1
  33   19   20 1
  34   19   21 1
  35   21   26 ar
  36   21   22 ar
  37   22   23 ar
  38   22   43 1
  39   23   24 ar
  40   23   44 1
  41   24   25 ar
  42   24   27 1
  43   25   26 ar
  44   25   45 1
  45   26   46 1
  46   27   28 am
  47   27   29 2
  48   27   30 2
  49   28   47 1
  50   28   48 1

#	End of record

