#	Name: ASD08178216
#	Creating user name:	WinNT
#	Creation time:	15. 06. 2019 21:18

#	Modifying user name:	WinNT
#	Modification time:	15. 06. 2019 21:18

#	Program:	/corina/corina34_cracker 3.40 0067  02.08.2006

@<TRIPOS>MOLECULE
ASD08178216
  62   65    0    0    0
SMALL
NO_CHARGES


@<TRIPOS>ATOM
   1 C1            -0.0191     1.5027     0.0207 C.ar    
   2 C2             0.0010    -0.0042     0.0166 C.3     
   3 C3            -0.8034    -0.5283     1.2078 C.3     
   4 C4            -0.7830    -2.0581     1.2036 C.3     
   5 C5            -1.5874    -2.5822     2.3949 C.3     
   6 C6            -1.5673    -4.0891     2.3907 C.2     
   7 N7            -0.6926    -4.8430     2.9773 N.2     
   8 N8            -0.8493    -6.0898     2.8558 N.2     
   9 C9            -1.8644    -6.5050     2.1598 C.2     
  10 S10           -2.7350    -5.1430     1.5925 S.3     
  11 N11           -2.1931    -7.8348     1.9197 N.am    
  12 C12           -1.4281    -8.8206     2.4289 C.2     
  13 C13           -1.7844   -10.2616     2.1687 C.3     
  14 O14           -0.4530    -8.5481     3.0966 O.2     
  15 C15           -1.6536   -10.5534     0.6960 C.ar    
  16 C16           -2.7629   -10.4746    -0.1252 C.ar    
  17 C17           -2.6427   -10.7420    -1.4768 C.ar    
  18 C18           -1.4123   -11.0881    -2.0064 C.ar    
  19 C19           -0.3040   -11.1665    -1.1846 C.ar    
  20 C20           -0.4236   -10.8940     0.1656 C.ar    
  21 C21            1.1732     2.2126     0.0064 C.ar    
  22 C22            1.1070     3.5972     0.0109 C.ar    
  23 C23           -0.1543     4.1901     0.0295 C.ar    
  24 N24           -1.2375     3.4281     0.0422 N.ar    
  25 N25           -1.1695     2.1465     0.0324 N.ar    
  26 N26           -0.2752     5.5793     0.0353 N.am    
  27 C27           -1.4930     6.1501    -0.0517 C.2     
  28 C28           -1.6348     7.6454     0.0713 C.3     
  29 O29           -2.4747     5.4604    -0.2290 O.2     
  30 C30           -3.0873     8.0247    -0.0606 C.ar    
  31 C31           -3.8898     8.0884     1.0632 C.ar    
  32 C32           -5.2222     8.4363     0.9422 C.ar    
  33 C33           -5.7519     8.7211    -0.3024 C.ar    
  34 C34           -4.9492     8.6583    -1.4261 C.ar    
  35 C35           -3.6158     8.3146    -1.3046 C.ar    
  36 Br36          -4.1598   -10.6351    -2.6006 Br      
  37 O37           -0.9002   -11.1109     2.9029 O.3     
  38 H38           -0.4409    -0.3709    -0.9099 H       
  39 H39            1.0307    -0.3540     0.0914 H       
  40 H40           -0.3615    -0.1615     2.1343 H       
  41 H41           -1.8331    -0.1785     1.1331 H       
  42 H42           -1.2249    -2.4249     0.2772 H       
  43 H43            0.2467    -2.4079     1.2784 H       
  44 H44           -1.1455    -2.2155     3.3213 H       
  45 H45           -2.6171    -2.2324     2.3201 H       
  46 H46           -2.9730    -8.0528     1.3857 H       
  47 H47           -2.8110   -10.4450     2.4857 H       
  48 H48           -3.7232   -10.2048     0.2887 H       
  49 H49           -1.3181   -11.2973    -3.0617 H       
  50 H50            0.6565   -11.4370    -1.5978 H       
  51 H51            0.4428   -10.9554     0.8075 H       
  52 H52            2.1245     1.7015    -0.0074 H       
  53 H53            2.0046     4.1977     0.0007 H       
  54 H54            0.5172     6.1348     0.1018 H       
  55 H55           -1.2622     7.9669     1.0438 H       
  56 H56           -1.0595     8.1310    -0.7169 H       
  57 H57           -3.4760     7.8659     2.0356 H       
  58 H58           -5.8494     8.4853     1.8201 H       
  59 H59           -6.7931     8.9922    -0.3970 H       
  60 H60           -5.3632     8.8805    -2.3985 H       
  61 H61           -2.9886     8.2656    -2.1825 H       
  62 H62            0.0324   -11.0014     2.6720 H       
@<TRIPOS>BOND
   1    1    2 1
   2    1   21 ar
   3    1   25 ar
   4    2    3 1
   5    2   38 1
   6    2   39 1
   7    3    4 1
   8    3   40 1
   9    3   41 1
  10    4    5 1
  11    4   42 1
  12    4   43 1
  13    5    6 1
  14    5   44 1
  15    5   45 1
  16    6    7 2
  17    6   10 1
  18    7    8 1
  19    8    9 2
  20    9   10 1
  21    9   11 1
  22   11   12 am
  23   11   46 1
  24   12   13 1
  25   12   14 2
  26   13   15 1
  27   13   37 1
  28   13   47 1
  29   15   16 ar
  30   15   20 ar
  31   16   17 ar
  32   16   48 1
  33   17   18 ar
  34   17   36 1
  35   18   19 ar
  36   18   49 1
  37   19   20 ar
  38   19   50 1
  39   20   51 1
  40   21   22 ar
  41   21   52 1
  42   22   23 ar
  43   22   53 1
  44   23   24 ar
  45   23   26 1
  46   24   25 ar
  47   26   27 am
  48   26   54 1
  49   27   28 1
  50   27   29 2
  51   28   30 1
  52   28   55 1
  53   28   56 1
  54   30   31 ar
  55   30   35 ar
  56   31   32 ar
  57   31   57 1
  58   32   33 ar
  59   32   58 1
  60   33   34 ar
  61   33   59 1
  62   34   35 ar
  63   34   60 1
  64   35   61 1
  65   37   62 1

#	End of record

