#	Name: ASD00310064
#	Creating user name:	WinNT
#	Creation time:	15. 06. 2019 18:33

#	Modifying user name:	WinNT
#	Modification time:	15. 06. 2019 18:33

#	Program:	/corina/corina34_cracker 3.40 0067  02.08.2006

@<TRIPOS>MOLECULE
ASD00310064
  47   49    0    0    0
SMALL
NO_CHARGES


@<TRIPOS>ATOM
   1 N1            -0.0179     1.4660     0.0101 N.am    
   2 C2             0.0021    -0.0041     0.0020 C.3     
   3 C3             1.4817    -0.4423     0.0128 C.3     
   4 C4             2.2073     0.7983     0.5975 C.3     
   5 C5             1.3719     1.9577    -0.0005 C.3     
   6 S6            -1.3765     2.4127     0.0219 S.o2    
   7 O7            -0.9598     3.6312    -0.5788 O.2     
   8 O8            -2.3742     1.6015    -0.5828 O.2     
   9 C9            -1.7392     2.6620     1.7817 C.3     
  10 C10            1.6759    -1.6424     0.9033 C.ar    
  11 C11            2.1702    -2.8212     0.3734 C.ar    
  12 C12            2.3500    -3.9230     1.1842 C.ar    
  13 C13            2.0331    -3.8470     2.5394 C.ar    
  14 C14            1.5359    -2.6569     3.0680 C.ar    
  15 C15            1.3647    -1.5597     2.2490 C.ar    
  16 O16            1.9167    -5.0403     4.8567 O.3     
  17 B17            2.2349    -5.0974     3.4671 Du      
  18 O18            2.7416    -6.3249     2.9456 O.3     
  19 C19            1.9505    -7.4561     3.3304 C.3     
  20 C20            1.7792    -7.4508     4.8523 C.3     
  21 C21            1.1076    -6.1435     5.2831 C.3     
  22 C22            0.9066    -8.6354     5.2719 C.3     
  23 C23            3.1508    -7.5645     5.5208 C.3     
  24 H24           -0.5043    -0.3865     0.8883 H       
  25 H25           -0.4883    -0.3765    -0.8974 H       
  26 H26            1.8295    -0.6512    -0.9989 H       
  27 H27            2.1582     0.8025     1.6863 H       
  28 H28            3.2409     0.8441     0.2544 H       
  29 H29            1.6918     2.1688    -1.0209 H       
  30 H30            1.4634     2.8499     0.6189 H       
  31 H31           -0.8942     3.1569     2.2603 H       
  32 H32           -2.6296     3.2822     1.8849 H       
  33 H33           -1.9119     1.6965     2.2574 H       
  34 H34            2.4154    -2.8790    -0.6768 H       
  35 H35            2.7352    -4.8428     0.7694 H       
  36 H36            1.2884    -2.5926     4.1173 H       
  37 H37            0.9830    -0.6360     2.6582 H       
  38 H38            0.9724    -7.3964     2.8531 H       
  39 H39            2.4524    -8.3736     3.0231 H       
  40 H40            1.0084    -6.1249     6.3684 H       
  41 H41            0.1216    -6.0715     4.8241 H       
  42 H42            1.3838    -9.5655     4.9635 H       
  43 H43            0.7848    -8.6313     6.3551 H       
  44 H44           -0.0707    -8.5533     4.7962 H       
  45 H45            3.7716    -6.7198     5.2222 H       
  46 H46            3.0285    -7.5606     6.6039 H       
  47 H47            3.6293    -8.4940     5.2124 H       
@<TRIPOS>BOND
   1    1    2 1
   2    1    5 1
   3    1    6 am
   4    2    3 1
   5    2   24 1
   6    2   25 1
   7    3    4 1
   8    3   10 1
   9    3   26 1
  10    4    5 1
  11    4   27 1
  12    4   28 1
  13    5   29 1
  14    5   30 1
  15    6    7 2
  16    6    8 2
  17    6    9 1
  18    9   31 1
  19    9   32 1
  20    9   33 1
  21   10   11 ar
  22   10   15 ar
  23   11   12 ar
  24   11   34 1
  25   12   13 ar
  26   12   35 1
  27   13   14 ar
  28   13   17 1
  29   14   15 ar
  30   14   36 1
  31   15   37 1
  32   16   17 1
  33   16   21 1
  34   17   18 1
  35   18   19 1
  36   19   20 1
  37   19   38 1
  38   19   39 1
  39   20   21 1
  40   20   22 1
  41   20   23 1
  42   21   40 1
  43   21   41 1
  44   22   42 1
  45   22   43 1
  46   22   44 1
  47   23   45 1
  48   23   46 1
  49   23   47 1

#	End of record

