#	Name: ASD04640023
#	Creating user name:	WinNT
#	Creation time:	15. 06. 2019 20:52

#	Modifying user name:	WinNT
#	Modification time:	15. 06. 2019 20:52

#	Program:	/corina/corina34_cracker 3.40 0067  02.08.2006

@<TRIPOS>MOLECULE
ASD04640023
  58   62    0    0    0
SMALL
NO_CHARGES


@<TRIPOS>ATOM
   1 C1             1.2050    -0.6716    -0.1437 C.ar    
   2 C2             0.0011     0.0070    -0.0711 C.ar    
   3 C3            -0.0146     1.3881    -0.0051 C.ar    
   4 C4             1.1717     2.0955    -0.0112 C.ar    
   5 C5             2.3825     1.4188    -0.0834 C.ar    
   6 C6             2.3965     0.0309    -0.1498 C.ar    
   7 N7             3.5841     2.1323    -0.0903 N.3     
   8 C8             4.3529     1.8809     1.1367 C.3     
   9 C9             5.6933     2.6153     1.0552 C.3     
  10 N10            5.4508     4.0534     0.8744 N.3     
  11 C11            4.6820     4.3048    -0.3525 C.3     
  12 C12            3.3417     3.5705    -0.2710 C.3     
  13 Cl13           1.2200    -2.4059    -0.2198 Cl      
  14 Cl14           3.9070    -0.8200    -0.2408 Cl      
  15 C15            6.7139     4.8034     0.8672 C.3     
  16 C16            6.4480     6.2458     0.4319 C.3     
  17 C17            7.6237     7.2242     0.4727 C.3     
  18 C18            7.0936     6.7208    -0.8714 C.3     
  19 C19            7.3223     8.6753     0.8523 C.3     
  20 N20            8.5772     9.4245     0.9531 N.am    
  21 C21            8.5571    10.7323     1.2782 C.2     
  22 C22            9.8240    11.4886     1.3801 C.ar    
  23 O23            7.4978    11.2902     1.4878 O.2     
  24 C24            9.8255    12.8888     1.6052 C.ar    
  25 C25           11.0519    10.8505     1.2642 C.ar    
  26 C26           12.2256    11.5941     1.3657 C.ar    
  27 N27           12.2094    12.8878     1.5688 N.ar    
  28 C28           11.0662    13.5668     1.6953 C.ar    
  29 C29           11.0700    14.9560     1.9185 C.ar    
  30 C30            9.8906    15.6228     2.0437 C.ar    
  31 C31            8.6726    14.9518     1.9549 C.ar    
  32 C32            8.6302    13.6072     1.7385 C.ar    
  33 H33           -0.9282    -0.5432    -0.0665 H       
  34 H34           -0.9559     1.9145     0.0511 H       
  35 H35            1.1578     3.1742     0.0397 H       
  36 H36            3.7917     2.2430     1.9981 H       
  37 H37            4.5304     0.8106     1.2417 H       
  38 H38            6.2530     2.4538     1.9764 H       
  39 H39            6.2660     2.2340     0.2098 H       
  40 H40            4.5045     5.3751    -0.4575 H       
  41 H41            5.2433     3.9427    -1.2139 H       
  42 H42            2.7820     3.7319    -1.1923 H       
  43 H43            2.7690     3.9518     0.5744 H       
  44 H44            7.1444     4.7996     1.8686 H       
  45 H45            7.4100     4.3361     0.1707 H       
  46 H46            5.4599     6.6360     0.6758 H       
  47 H47            8.5864     6.8402     0.8101 H       
  48 H48            7.7078     6.0056    -1.4186 H       
  49 H49            6.5302     7.4235    -1.4852 H       
  50 H50            6.6899     9.1270     0.0879 H       
  51 H51            6.8062     8.7002     1.8120 H       
  52 H52            9.4226     8.9792     0.7859 H       
  53 H53           11.0966     9.7845     1.0967 H       
  54 H54           13.1759    11.0892     1.2747 H       
  55 H55           12.0055    15.4909     1.9906 H       
  56 H56            9.8986    16.6891     2.2150 H       
  57 H57            7.7505    15.5045     2.0583 H       
  58 H58            7.6802    13.0979     1.6709 H       
@<TRIPOS>BOND
   1    1    2 ar
   2    1    6 ar
   3    1   13 1
   4    2    3 ar
   5    2   33 1
   6    3    4 ar
   7    3   34 1
   8    4    5 ar
   9    4   35 1
  10    5    6 ar
  11    5    7 1
  12    6   14 1
  13    7    8 1
  14    7   12 1
  15    8    9 1
  16    8   36 1
  17    8   37 1
  18    9   10 1
  19    9   38 1
  20    9   39 1
  21   10   11 1
  22   10   15 1
  23   11   12 1
  24   11   40 1
  25   11   41 1
  26   12   42 1
  27   12   43 1
  28   15   16 1
  29   15   44 1
  30   15   45 1
  31   16   17 1
  32   16   18 1
  33   16   46 1
  34   17   19 1
  35   17   18 1
  36   17   47 1
  37   18   48 1
  38   18   49 1
  39   19   20 1
  40   19   50 1
  41   19   51 1
  42   20   21 am
  43   20   52 1
  44   21   22 1
  45   21   23 2
  46   22   25 ar
  47   22   24 ar
  48   24   28 ar
  49   24   32 ar
  50   25   26 ar
  51   25   53 1
  52   26   27 ar
  53   26   54 1
  54   27   28 ar
  55   28   29 ar
  56   29   30 ar
  57   29   55 1
  58   30   31 ar
  59   30   56 1
  60   31   32 ar
  61   31   57 1
  62   32   58 1

#	End of record

