#	Name: ASD00310477
#	Creating user name:	WinNT
#	Creation time:	15. 06. 2019 18:34

#	Modifying user name:	WinNT
#	Modification time:	15. 06. 2019 18:34

#	Program:	/corina/corina34_cracker 3.40 0067  02.08.2006

@<TRIPOS>MOLECULE
ASD00310477
  37   39    0    0    0
SMALL
NO_CHARGES


@<TRIPOS>ATOM
   1 N1            -0.0163     1.3499     0.0095 N.pl3   
   2 C2             0.0021    -0.0041     0.0020 C.2     
   3 C3             1.2922    -0.4483    -0.0127 C.2     
   4 C4             2.1476     0.7538    -0.0144 C.ar    
   5 C5             3.5232     0.9581    -0.0271 C.ar    
   6 C6             4.0242     2.2536    -0.0256 C.ar    
   7 C7             3.1468     3.3435    -0.0114 C.ar    
   8 C8             1.7853     3.1435     0.0017 C.ar    
   9 C9             1.2697     1.8501    -0.0001 C.ar    
  10 C10            1.7402    -1.8454    -0.0245 C.2     
  11 O11            2.9286    -2.1027    -0.0367 O.2     
  12 O12            0.8342    -2.8441    -0.0217 O.3     
  13 Cl13           3.7804     4.9598    -0.0096 Cl      
  14 C14            5.4901     2.4818    -0.0386 C.ar    
  15 C15            6.0519     3.3599    -0.9638 C.ar    
  16 C16            7.4150     3.5699    -0.9735 C.ar    
  17 C17            8.2272     2.9075    -0.0633 C.ar    
  18 C18            7.6706     2.0324     0.8595 C.ar    
  19 C19            6.3075     1.8230     0.8781 C.ar    
  20 O20            9.5700     3.1158    -0.0758 O.3     
  21 C21           10.3463     2.4018     0.8884 C.3     
  22 C22           11.8016     2.7570     0.7242 C.2     
  23 O23           12.1406     3.5441    -0.1340 O.2     
  24 N24           12.7264     2.2000     1.5310 N.am    
  25 H25           -0.8206     1.8921     0.0164 H       
  26 H26           -0.8729    -0.6372     0.0070 H       
  27 H27            4.1977     0.1147    -0.0377 H       
  28 H28            1.1159     3.9909     0.0133 H       
  29 H29            1.1772    -3.7482    -0.0298 H       
  30 H30            5.4206     3.8750    -1.6727 H       
  31 H31            7.8509     4.2502    -1.6902 H       
  32 H32            8.3051     1.5182     1.5662 H       
  33 H33            5.8745     1.1454     1.5991 H       
  34 H34           10.0173     2.6720     1.8918 H       
  35 H35           10.2148     1.3301     0.7391 H       
  36 H36           12.4553     1.5705     2.2174 H       
  37 H37           13.6631     2.4286     1.4253 H       
@<TRIPOS>BOND
   1    1    2 1
   2    1    9 1
   3    1   25 1
   4    2    3 2
   5    2   26 1
   6    3    4 1
   7    3   10 1
   8    4    5 ar
   9    4    9 ar
  10    5    6 ar
  11    5   27 1
  12    6    7 ar
  13    6   14 1
  14    7    8 ar
  15    7   13 1
  16    8    9 ar
  17    8   28 1
  18   10   11 2
  19   10   12 1
  20   12   29 1
  21   14   15 ar
  22   14   19 ar
  23   15   16 ar
  24   15   30 1
  25   16   17 ar
  26   16   31 1
  27   17   18 ar
  28   17   20 1
  29   18   19 ar
  30   18   32 1
  31   19   33 1
  32   20   21 1
  33   21   22 1
  34   21   34 1
  35   21   35 1
  36   22   23 2
  37   22   24 am
  38   24   36 1
  39   24   37 1

#	End of record

