#	Name: ASD03160010
#	Creating user name:	WinNT
#	Creation time:	15. 06. 2019 20:33

#	Modifying user name:	WinNT
#	Modification time:	15. 06. 2019 20:33

#	Program:	/corina/corina34_cracker 3.40 0067  02.08.2006

@<TRIPOS>MOLECULE
ASD03160010
  78   84    0    0    0
SMALL
NO_CHARGES


@<TRIPOS>ATOM
   1 C1             0.5801     1.6715    -1.4809 C.ar    
   2 C2            -0.5672     2.4416    -1.5817 C.ar    
   3 C3            -1.8103     1.8698    -1.3224 C.ar    
   4 C4            -1.8932     0.5339    -0.9648 C.ar    
   5 C5            -2.1453     3.8751    -2.2457 C.3     
   6 C6            -5.1253    -3.4498    -0.2355 C.2     
   7 N7            -4.5216    -3.5191     0.9285 N.2     
   8 C8            -3.1980    -3.6596     0.7322 C.2     
   9 C9            -2.9703    -3.6784    -0.6089 C.2     
  10 N10           -4.1852    -3.5461    -1.2203 N.pl3   
  11 C11           -4.4326    -3.5146    -2.6639 C.3     
  12 C12           -4.2468    -2.0871    -3.1822 C.3     
  13 C13           -4.5052    -2.0542    -4.6899 C.3     
  14 C14           -4.3195    -0.6266    -5.2081 C.3     
  15 C15           -1.6334    -3.8183    -1.2901 C.3     
  16 N16           -1.1344    -2.4891    -1.6671 N.3     
  17 C17           -0.8371    -1.6813    -0.4767 C.3     
  18 C18           -0.7443    -0.2284    -0.8659 C.ar    
  19 C19            0.4897     0.3391    -1.1239 C.ar    
  20 O20           -2.7724     2.8239    -1.4875 O.3     
  21 O21           -0.7505     3.7540    -1.9094 O.3     
  22 C22            0.0438    -2.5966    -2.5380 C.3     
  23 C23           -0.3926    -2.9814    -3.9281 C.ar    
  24 C24           -0.6923    -1.9993    -4.8536 C.ar    
  25 C25           -1.0937    -2.3507    -6.1322 C.ar    
  26 O26           -1.4406    -1.5920    -7.2126 O.3     
  27 C27           -2.1454    -2.4827    -8.0976 C.3     
  28 O28           -1.6033    -3.7786    -7.7813 O.3     
  29 C29           -1.1937    -3.6951    -6.4819 C.ar    
  30 C30           -0.8921    -4.6740    -5.5491 C.ar    
  31 C31           -0.4868    -4.3159    -4.2768 C.ar    
  32 C32           -2.1669    -3.7738     1.7929 C.ar    
  33 C33           -2.2218    -2.9470     2.9134 C.ar    
  34 C34           -1.2600    -3.0575     3.8970 C.ar    
  35 C35           -0.2426    -3.9863     3.7720 C.ar    
  36 C36           -0.1832    -4.8095     2.6619 C.ar    
  37 C37           -1.1432    -4.7120     1.6752 C.ar    
  38 C38           -6.5818    -3.2988    -0.4447 C.ar    
  39 C39           -7.4741    -3.6305     0.5755 C.ar    
  40 C40           -8.8315    -3.4870     0.3742 C.ar    
  41 C41           -9.3084    -3.0158    -0.8360 C.ar    
  42 C42           -8.4289    -2.6856    -1.8516 C.ar    
  43 C43           -7.0689    -2.8186    -1.6609 C.ar    
  44 H44            1.5450     2.1112    -1.6857 H       
  45 H45           -2.8559     0.0879    -0.7629 H       
  46 H46           -2.2966     3.7194    -3.3139 H       
  47 H47           -2.5296     4.8486    -1.9413 H       
  48 H48           -3.7298    -4.1783    -3.1676 H       
  49 H49           -5.4518    -3.8444    -2.8652 H       
  50 H50           -4.9496    -1.4233    -2.6785 H       
  51 H51           -3.2276    -1.7572    -2.9810 H       
  52 H52           -3.8024    -2.7179    -5.1935 H       
  53 H53           -5.5245    -2.3840    -4.8911 H       
  54 H54           -5.0223     0.0371    -4.7045 H       
  55 H55           -3.3003    -0.2968    -5.0069 H       
  56 H56           -4.5036    -0.6032    -6.2822 H       
  57 H57           -0.9264    -4.2922    -0.6091 H       
  58 H58           -1.7437    -4.4320    -2.1842 H       
  59 H59           -1.6320    -1.8106     0.2579 H       
  60 H60            0.1111    -2.0035    -0.0464 H       
  61 H61            1.3847    -0.2609    -1.0502 H       
  62 H62            0.5595    -1.6369    -2.5716 H       
  63 H63            0.7179    -3.3577    -2.1450 H       
  64 H64           -0.6139    -0.9576    -4.5797 H       
  65 H65           -3.2161    -2.4556    -7.8952 H       
  66 H66           -1.9467    -2.2253    -9.1379 H       
  67 H67           -0.9688    -5.7173    -5.8175 H       
  68 H68           -0.2521    -5.0804    -3.5509 H       
  69 H69           -3.0153    -2.2210     3.0117 H       
  70 H70           -1.3015    -2.4172     4.7658 H       
  71 H71            0.5084    -4.0688     4.5437 H       
  72 H72            0.6133    -5.5330     2.5694 H       
  73 H73           -1.0987    -5.3585     0.8112 H       
  74 H74           -7.1031    -3.9992     1.5204 H       
  75 H75           -9.5233    -3.7434     1.1630 H       
  76 H76          -10.3719    -2.9056    -0.9886 H       
  77 H77           -8.8075    -2.3186    -2.7941 H       
  78 H78           -6.3831    -2.5563    -2.4528 H       
@<TRIPOS>BOND
   1    1   19 ar
   2    1   44 1
   3    1    2 ar
   4    2    3 ar
   5    2   21 1
   6    3    4 ar
   7    3   20 1
   8    4   18 ar
   9    4   45 1
  10    5   21 1
  11    5   20 1
  12    5   46 1
  13    5   47 1
  14    6   10 1
  15    6    7 2
  16    6   38 1
  17    7    8 1
  18    8    9 2
  19    8   32 1
  20    9   15 1
  21    9   10 1
  22   10   11 1
  23   11   12 1
  24   11   48 1
  25   11   49 1
  26   12   13 1
  27   12   50 1
  28   12   51 1
  29   13   14 1
  30   13   52 1
  31   13   53 1
  32   14   54 1
  33   14   55 1
  34   14   56 1
  35   15   57 1
  36   15   58 1
  37   15   16 1
  38   16   22 1
  39   16   17 1
  40   17   59 1
  41   17   60 1
  42   17   18 1
  43   18   19 ar
  44   19   61 1
  45   22   23 1
  46   22   62 1
  47   22   63 1
  48   23   24 ar
  49   23   31 ar
  50   24   25 ar
  51   24   64 1
  52   25   26 1
  53   25   29 ar
  54   26   27 1
  55   27   65 1
  56   27   66 1
  57   27   28 1
  58   28   29 1
  59   29   30 ar
  60   30   67 1
  61   30   31 ar
  62   31   68 1
  63   32   37 ar
  64   32   33 ar
  65   33   69 1
  66   33   34 ar
  67   34   35 ar
  68   34   70 1
  69   35   36 ar
  70   35   71 1
  71   36   37 ar
  72   36   72 1
  73   37   73 1
  74   38   43 ar
  75   38   39 ar
  76   39   74 1
  77   39   40 ar
  78   40   41 ar
  79   40   75 1
  80   41   42 ar
  81   41   76 1
  82   42   43 ar
  83   42   77 1
  84   43   78 1

#	End of record

