#	Name: ASD09116010
#	Creating user name:	WinNT
#	Creation time:	15. 06. 2019 21:20

#	Modifying user name:	WinNT
#	Modification time:	15. 06. 2019 21:20

#	Program:	/corina/corina34_cracker 3.40 0067  02.08.2006

@<TRIPOS>MOLECULE
ASD09116010
  75   81    0    0    0
SMALL
NO_CHARGES


@<TRIPOS>ATOM
   1 C1            -1.0782     1.5228    -0.6534 C.ar    
   2 C2            -1.0305     0.1436    -0.6622 C.ar    
   3 C3             0.1905    -0.5078    -0.8283 C.ar    
   4 C4             1.3570     0.2389    -0.9848 C.ar    
   5 C5             1.2973     1.6176    -0.9744 C.ar    
   6 C6             0.0827     2.2587    -0.8091 C.ar    
   7 C7             0.2484    -1.9896    -0.8381 C.ar    
   8 C8            -0.3613    -2.7516     0.1676 C.ar    
   9 C9            -0.2808    -4.1359     0.1172 C.ar    
  10 N10            0.3640    -4.7571    -0.8669 N.ar    
  11 C11            0.9408    -4.0789    -1.8163 C.ar    
  12 C12            0.9033    -2.6815    -1.8463 C.ar    
  13 C13            1.7032    -4.6711    -2.9875 C.3     
  14 C14            1.0259    -4.1239    -4.2608 C.3     
  15 C15            0.9640    -2.5966    -4.1868 C.3     
  16 N16            1.5730    -2.1146    -2.9363 N.3     
  17 N17           -0.8899    -4.8941     1.1223 N.pl3   
  18 N18           -1.1720    -4.4799     2.4340 N.2     
  19 C19           -1.7426    -5.4930     3.0408 C.2     
  20 N20           -1.8344    -6.5179     2.1856 N.2     
  21 C21           -1.3292    -6.1699     1.0213 C.2     
  22 N22           -2.1825    -5.5009     4.3650 N.pl3   
  23 C23           -2.8753    -6.6068     4.8645 C.ar    
  24 C24           -2.7751    -6.9414     6.2093 C.ar    
  25 C25           -3.6701    -7.3706     4.0181 C.ar    
  26 C26           -4.3516    -8.4625     4.5232 C.ar    
  27 C27           -4.2462    -8.7932     5.8496 C.ar    
  28 C28           -3.4606    -8.0351     6.7014 C.ar    
  29 N29           -1.2518    -6.9699    -0.1033 N.pl3   
  30 C30            2.9910    -2.5231    -2.9024 C.3     
  31 C31            3.1137    -4.0487    -2.9401 C.3     
  32 C32           -5.2188    -9.2920     3.5989 C.3     
  33 C33           -4.5400   -10.6469     3.3836 C.3     
  34 C34           -4.9073   -11.6184     4.4878 C.3     
  35 C35           -4.3431   -11.2625     5.8491 C.3     
  36 C36           -4.9960    -9.9905     6.3964 C.3     
  37 N37           -4.4191   -12.9530     4.1156 N.3     
  38 C38           -2.9526   -13.0131     4.1765 C.3     
  39 C39           -5.0241   -13.9899     4.9623 C.3     
  40 H40           -2.0244     2.0285    -0.5292 H       
  41 H41           -1.9374    -0.4300    -0.5402 H       
  42 H42            2.3059    -0.2606    -1.1135 H       
  43 H43            2.2006     2.1972    -1.0952 H       
  44 H44            0.0406     3.3378    -0.8019 H       
  45 H45           -0.8888    -2.2656     0.9751 H       
  46 H46            1.7191    -5.7608    -2.9628 H       
  47 H47            1.6025    -4.4224    -5.1363 H       
  48 H48            0.0154    -4.5254    -4.3363 H       
  49 H49            1.5006    -2.1733    -5.0359 H       
  50 H50           -0.0773    -2.2765    -4.2242 H       
  51 H51           -2.0075    -4.7386     4.9387 H       
  52 H52           -2.1611    -6.3469     6.8696 H       
  53 H53           -3.7553    -7.1127     2.9728 H       
  54 H54           -3.3808    -8.3003     7.7453 H       
  55 H55           -1.5890    -7.8790    -0.0759 H       
  56 H56           -0.8604    -6.6222    -0.9199 H       
  57 H57            3.5076    -2.1015    -3.7646 H       
  58 H58            3.4518    -2.1477    -1.9887 H       
  59 H59            3.6340    -4.3949    -2.0470 H       
  60 H60            3.6733    -4.3483    -3.8262 H       
  61 H61           -6.1989    -9.4412     4.0520 H       
  62 H62           -5.3281    -8.7809     2.6424 H       
  63 H63           -4.8567   -11.0578     2.4250 H       
  64 H64           -3.4589   -10.5083     3.3733 H       
  65 H65           -5.9938   -11.6605     4.5640 H       
  66 H66           -4.5277   -12.0854     6.5396 H       
  67 H67           -3.2683   -11.1041     5.7611 H       
  68 H68           -4.9423    -9.9905     7.4851 H       
  69 H69           -6.0376    -9.9473     6.0781 H       
  70 H70           -2.6260   -12.8781     5.2076 H       
  71 H71           -2.6133   -13.9826     3.8118 H       
  72 H72           -2.5305   -12.2232     3.5553 H       
  73 H73           -6.1023   -14.0058     4.8029 H       
  74 H74           -4.6041   -14.9617     4.7028 H       
  75 H75           -4.8148   -13.7716     6.0095 H       
@<TRIPOS>BOND
   1    1    2 ar
   2    1    6 ar
   3    1   40 1
   4    2    3 ar
   5    2   41 1
   6    3    4 ar
   7    3    7 1
   8    4    5 ar
   9    4   42 1
  10    5    6 ar
  11    5   43 1
  12    6   44 1
  13    7    8 ar
  14    7   12 ar
  15    8    9 ar
  16    8   45 1
  17    9   10 ar
  18    9   17 1
  19   10   11 ar
  20   11   12 ar
  21   11   13 1
  22   12   16 1
  23   13   14 1
  24   13   31 1
  25   13   46 1
  26   14   15 1
  27   14   47 1
  28   14   48 1
  29   15   16 1
  30   15   49 1
  31   15   50 1
  32   16   30 1
  33   17   18 1
  34   17   21 1
  35   18   19 2
  36   19   20 1
  37   19   22 1
  38   20   21 2
  39   21   29 1
  40   22   23 1
  41   22   51 1
  42   23   24 ar
  43   23   25 ar
  44   24   28 ar
  45   24   52 1
  46   25   26 ar
  47   25   53 1
  48   26   27 ar
  49   26   32 1
  50   27   28 ar
  51   27   36 1
  52   28   54 1
  53   29   55 1
  54   29   56 1
  55   30   31 1
  56   30   57 1
  57   30   58 1
  58   31   59 1
  59   31   60 1
  60   32   33 1
  61   32   61 1
  62   32   62 1
  63   33   34 1
  64   33   63 1
  65   33   64 1
  66   34   35 1
  67   34   37 1
  68   34   65 1
  69   35   36 1
  70   35   66 1
  71   35   67 1
  72   36   68 1
  73   36   69 1
  74   37   38 1
  75   37   39 1
  76   38   70 1
  77   38   71 1
  78   38   72 1
  79   39   73 1
  80   39   74 1
  81   39   75 1

#	End of record

