#	Name: ASD01915602
#	Creating user name:	WinNT
#	Creation time:	15. 06. 2019 20:05

#	Modifying user name:	WinNT
#	Modification time:	15. 06. 2019 20:05

#	Program:	/corina/corina34_cracker 3.40 0067  02.08.2006

@<TRIPOS>MOLECULE
ASD01915602
  43   46    0    0    0
SMALL
NO_CHARGES


@<TRIPOS>ATOM
   1 C1            -0.0085     1.4183     0.1021 C.2     
   2 N2             0.0291     0.0468    -0.0151 N.pl3   
   3 C3            -1.2040    -0.7387    -0.1459 C.3     
   4 C4            -2.3388    -0.0228     0.5846 C.3     
   5 N5            -2.4043     1.3988     0.2637 N.am    
   6 C6            -1.2834     2.1503     0.1422 C.2     
   7 C7             1.2863     1.8490     0.1764 C.2     
   8 C8             2.0609     0.6830     0.1099 C.2     
   9 N9             1.2447    -0.3396     0.0027 N.2     
  10 C10            3.5657     0.6150     0.1534 C.3     
  11 O11            4.0988     1.9353     0.2743 O.3     
  12 C12            5.4518     2.0519     0.3273 C.ar    
  13 O13           -1.3290     3.3637     0.0710 O.2     
  14 C14            6.0372     3.3041     0.4446 C.ar    
  15 C15            6.2496     0.9184     0.2700 C.ar    
  16 C16            7.6247     1.0395     0.3240 C.ar    
  17 C17            8.2059     2.2892     0.4351 C.ar    
  18 C18            7.4128     3.4200     0.4983 C.ar    
  19 C19           -3.6493     1.9981     0.0777 C.ar    
  20 C20           -4.2286     2.0328    -1.1953 C.ar    
  21 N21           -5.4104     2.6033    -1.3639 N.ar    
  22 C22           -6.0406     3.1389    -0.3303 C.ar    
  23 C23           -5.4695     3.1050     0.9258 C.ar    
  24 N24           -4.2904     2.5320     1.1064 N.ar    
  25 O25           -3.5804     1.4834    -2.2536 O.3     
  26 C26           -4.2328     1.5561    -3.5229 C.3     
  27 H27           -1.4588    -0.8428    -1.2006 H       
  28 H28           -1.0548    -1.7256     0.2920 H       
  29 H29           -3.2845    -0.4899     0.3098 H       
  30 H30           -2.1921    -0.1349     1.6589 H       
  31 H31            1.6365     2.8666     0.2663 H       
  32 H32            3.8778     0.0173     1.0098 H       
  33 H33            3.9353     0.1565    -0.7638 H       
  34 H34            5.4182     4.1877     0.4936 H       
  35 H35            5.7961    -0.0580     0.1835 H       
  36 H36            8.2462     0.1574     0.2797 H       
  37 H37            9.2811     2.3818     0.4772 H       
  38 H38            7.8692     4.3950     0.5847 H       
  39 H39           -7.0050     3.6044    -0.4705 H       
  40 H40           -5.9886     3.5441     1.7650 H       
  41 H41           -5.1924     1.0421    -3.4682 H       
  42 H42           -4.3948     2.6007    -3.7888 H       
  43 H43           -3.6087     1.0811    -4.2799 H       
@<TRIPOS>BOND
   1    1    2 1
   2    1    7 2
   3    1    6 1
   4    2    3 1
   5    2    9 1
   6    3    4 1
   7    3   27 1
   8    3   28 1
   9    4    5 1
  10    4   29 1
  11    4   30 1
  12    5    6 am
  13    5   19 1
  14    6   13 2
  15    7    8 1
  16    7   31 1
  17    8    9 2
  18    8   10 1
  19   10   11 1
  20   10   32 1
  21   10   33 1
  22   11   12 1
  23   12   14 ar
  24   12   15 ar
  25   14   18 ar
  26   14   34 1
  27   15   16 ar
  28   15   35 1
  29   16   17 ar
  30   16   36 1
  31   17   18 ar
  32   17   37 1
  33   18   38 1
  34   19   20 ar
  35   19   24 ar
  36   20   21 ar
  37   20   25 1
  38   21   22 ar
  39   22   23 ar
  40   22   39 1
  41   23   24 ar
  42   23   40 1
  43   25   26 1
  44   26   41 1
  45   26   42 1
  46   26   43 1

#	End of record

