#	Name: ASD01811480
#	Creating user name:	WinNT
#	Creation time:	15. 06. 2019 19:26

#	Modifying user name:	WinNT
#	Modification time:	15. 06. 2019 19:26

#	Program:	/corina/corina34_cracker 3.40 0067  02.08.2006

@<TRIPOS>MOLECULE
ASD01811480
  65   70    0    0    0
SMALL
NO_CHARGES


@<TRIPOS>ATOM
   1 C1            -0.1563    14.9584    -5.5116 C.1     
   2 C2            -0.2459    13.8790    -4.5749 C.ar    
   3 C3            -0.4713    12.5766    -5.0251 C.ar    
   4 C4            -0.5565    11.5415    -4.1173 C.ar    
   5 C5            -0.4197    11.7915    -2.7633 C.ar    
   6 C6            -0.1967    13.0797    -2.3103 C.ar    
   7 C7            -0.1025    14.1232    -3.2076 C.ar    
   8 N8            -0.0852    15.8147    -6.2547 N.1     
   9 N9            -1.4136     9.4370     0.6114 N.am    
  10 C10           -0.0348     9.9429     0.5680 C.3     
  11 C11            0.0311    11.1102    -0.4219 C.3     
  12 C12           -0.5146    10.6557    -1.7775 C.3     
  13 C13           -1.9777    10.2338    -1.6249 C.3     
  14 C14           -2.0665     9.0566    -0.6487 C.3     
  15 F15            0.2369     9.5710    -2.2425 F       
  16 C16           -2.0650     9.3187     1.7853 C.2     
  17 C17           -1.3577     9.5936     3.0543 C.ar    
  18 C18           -1.9766    10.3473     4.0498 C.ar    
  19 C19           -1.3035    10.6012     5.2422 C.ar    
  20 C20           -0.0142    10.0997     5.4333 C.ar    
  21 C21            0.5937     9.3541     4.4429 C.ar    
  22 C22           -0.0702     9.0937     3.2604 C.ar    
  23 O23           -3.2340     8.9861     1.8008 O.2     
  24 C24           -1.9527    11.4007     6.3041 C.2     
  25 N25           -3.1393    12.0708     6.1883 N.pl3   
  26 C26           -3.3710    12.6690     7.3857 C.2     
  27 C27           -2.3322    12.3574     8.1994 C.2     
  28 N28           -1.4886    11.5834     7.5239 N.2     
  29 C29           -4.5316    13.5284     7.8158 C.3     
  30 C30           -2.2365    12.8510     9.6232 C.3     
  31 C31           -3.2345    14.0067     9.7857 C.3     
  32 O32           -4.5033    13.6268     9.2466 O.3     
  33 C33            0.7155    10.3736     6.7231 C.3     
  34 C34            0.9484     9.1166     7.5779 C.3     
  35 C35            2.3431     9.6837     7.8910 C.3     
  36 C36            2.2429    10.4513     6.5622 C.3     
  37 H37           -0.5790    12.3802    -6.0817 H       
  38 H38           -0.7309    10.5337    -4.4641 H       
  39 H39           -0.0911    13.2679    -1.2521 H       
  40 H40            0.0764    15.1275    -2.8530 H       
  41 H41            0.2593    10.2875     1.5594 H       
  42 H42            0.6359     9.1483     0.2412 H       
  43 H43           -0.5695    11.9392    -0.0474 H       
  44 H44            1.0661    11.4325    -0.5358 H       
  45 H45           -2.5594    11.0710    -1.2391 H       
  46 H46           -2.3725     9.9324    -2.5952 H       
  47 H47           -1.5614     8.1897    -1.0748 H       
  48 H48           -3.1128     8.8163    -0.4601 H       
  49 H49           -2.9737    10.7332     3.8970 H       
  50 H50            1.5912     8.9692     4.5955 H       
  51 H51            0.4091     8.5060     2.4915 H       
  52 H52           -3.7060    12.1116     5.4022 H       
  53 H53           -4.4377    14.5214     7.3762 H       
  54 H54           -5.4677    13.0703     7.4964 H       
  55 H55           -2.4899    12.0446    10.3115 H       
  56 H56           -1.2254    13.2051     9.8242 H       
  57 H57           -3.3462    14.2434    10.8438 H       
  58 H58           -2.8632    14.8838     9.2556 H       
  59 H59            0.2908    11.2083     7.2807 H       
  60 H60            0.2966     9.0544     8.4494 H       
  61 H61            0.9723     8.1933     6.9992 H       
  62 H62            2.3647    10.3304     8.7682 H       
  63 H63            3.1293     8.9288     7.9009 H       
  64 H64            2.6207     9.8928     5.7058 H       
  65 H65            2.6363    11.4666     6.6137 H       
@<TRIPOS>BOND
   1    1    2 1
   2    1    8 3
   3    2    3 ar
   4    2    7 ar
   5    3    4 ar
   6    3   37 1
   7    4    5 ar
   8    4   38 1
   9    5    6 ar
  10    5   12 1
  11    6    7 ar
  12    6   39 1
  13    7   40 1
  14    9   10 1
  15    9   14 1
  16    9   16 am
  17   10   11 1
  18   10   41 1
  19   10   42 1
  20   11   12 1
  21   11   43 1
  22   11   44 1
  23   12   13 1
  24   12   15 1
  25   13   14 1
  26   13   45 1
  27   13   46 1
  28   14   47 1
  29   14   48 1
  30   16   17 1
  31   16   23 2
  32   17   18 ar
  33   17   22 ar
  34   18   19 ar
  35   18   49 1
  36   19   20 ar
  37   19   24 1
  38   20   21 ar
  39   20   33 1
  40   21   22 ar
  41   21   50 1
  42   22   51 1
  43   24   25 1
  44   24   28 2
  45   25   26 1
  46   25   52 1
  47   26   27 2
  48   26   29 1
  49   27   28 1
  50   27   30 1
  51   29   32 1
  52   29   53 1
  53   29   54 1
  54   30   31 1
  55   30   55 1
  56   30   56 1
  57   31   32 1
  58   31   57 1
  59   31   58 1
  60   33   34 1
  61   33   36 1
  62   33   59 1
  63   34   35 1
  64   34   60 1
  65   34   61 1
  66   35   36 1
  67   35   62 1
  68   35   63 1
  69   36   64 1
  70   36   65 1

#	End of record

