#	Name: ASD01810630
#	Creating user name:	WinNT
#	Creation time:	15. 06. 2019 19:25

#	Modifying user name:	WinNT
#	Modification time:	15. 06. 2019 19:25

#	Program:	/corina/corina34_cracker 3.40 0067  02.08.2006

@<TRIPOS>MOLECULE
ASD01810630
  68   71    0    0    0
SMALL
NO_CHARGES


@<TRIPOS>ATOM
   1 C1             0.0017     1.3673     0.5499 C.2     
   2 N2             0.0460     0.1452    -0.0168 N.am    
   3 O3             0.9991     1.8361     1.0618 O.2     
   4 O4            -1.1463     2.0709     0.5440 O.3     
   5 C5             1.2649    -0.5355    -0.1181 C.ar    
   6 C6             1.2984    -1.9206    -0.0089 C.ar    
   7 C7             2.4994    -2.5975    -0.1082 C.ar    
   8 C8             3.6735    -1.9024    -0.3162 C.ar    
   9 C9             3.6505    -0.5113    -0.4273 C.ar    
  10 C10            2.4375     0.1712    -0.3331 C.ar    
  11 C11            4.9803    -2.6454    -0.4227 C.3     
  12 C12            0.0211    -2.6871     0.2192 C.3     
  13 C13            4.9068     0.2360    -0.6496 C.2     
  14 O14            5.8379     0.1021     0.1201 O.2     
  15 N15            5.0196     1.0655    -1.7059 N.am    
  16 C16            6.2896     1.7475    -1.9899 C.3     
  17 C17            6.6914     1.4577    -3.4395 C.3     
  18 C18            5.5436     1.8528    -4.3715 C.3     
  19 C19            4.3038     1.0199    -4.0382 C.3     
  20 C20            3.8765     1.3004    -2.5986 C.3     
  21 F21            5.2522     3.2106    -4.2023 F       
  22 C22            5.9483     1.6008    -5.8011 C.ar    
  23 C23            5.2155     2.1599    -6.8330 C.ar    
  24 C24            5.5803     1.9333    -8.1439 C.ar    
  25 C25            6.6923     1.1381    -8.4283 C.ar    
  26 C26            7.4276     0.5775    -7.3820 C.ar    
  27 C27            7.0544     0.8162    -6.0756 C.ar    
  28 C28            7.0765     0.8983    -9.7868 C.1     
  29 N29            7.3814     0.7080   -10.8644 N.1     
  30 N30           -1.6141     5.6415     0.4441 N.am    
  31 C31           -0.7734     4.4739     0.1413 C.3     
  32 C32           -1.1205     3.3796     1.1726 C.3     
  33 C33           -2.5397     3.7880     1.6484 C.3     
  34 C34           -2.4431     5.3339     1.6237 C.3     
  35 C35           -1.6213     6.8027    -0.2399 C.2     
  36 O36           -0.8896     6.9479    -1.1962 O.2     
  37 C37           -2.5386     7.9209     0.1835 C.3     
  38 H38           -0.7668    -0.2625    -0.3544 H       
  39 H39            2.5192    -3.6739    -0.0225 H       
  40 H40            2.4129     1.2472    -0.4227 H       
  41 H41            5.1234    -2.9834    -1.4491 H       
  42 H42            5.7988    -1.9831    -0.1408 H       
  43 H43            4.9638    -3.5071     0.2446 H       
  44 H44           -0.4183    -2.9552    -0.7416 H       
  45 H45            0.2371    -3.5931     0.7854 H       
  46 H46           -0.6795    -2.0673     0.7788 H       
  47 H47            6.1662     2.8217    -1.8527 H       
  48 H48            7.0619     1.3772    -1.3157 H       
  49 H49            7.5808     2.0346    -3.6928 H       
  50 H50            6.9025     0.3943    -3.5529 H       
  51 H51            3.4938     1.2853    -4.7176 H       
  52 H52            4.5373    -0.0393    -4.1460 H       
  53 H53            3.0572     0.6352    -2.3259 H       
  54 H54            3.5523     2.3374    -2.5121 H       
  55 H55            4.3556     2.7747    -6.6116 H       
  56 H56            5.0069     2.3697    -8.9485 H       
  57 H57            8.2888    -0.0385    -7.5950 H       
  58 H58            7.6247     0.3865    -5.2653 H       
  59 H59           -0.9862     4.1151    -0.8658 H       
  60 H60            0.2794     4.7430     0.2264 H       
  61 H61           -0.4138     3.3935     2.0023 H       
  62 H62           -3.3017     3.4331     0.9544 H       
  63 H63           -2.7331     3.4247     2.6577 H       
  64 H64           -1.9617     5.6984     2.5312 H       
  65 H65           -3.4343     5.7743     1.5160 H       
  66 H66           -3.1145     7.6083     1.0546 H       
  67 H67           -1.9466     8.8006     0.4360 H       
  68 H68           -3.2182     8.1626    -0.6337 H       
@<TRIPOS>BOND
   1    1    2 am
   2    1    3 2
   3    1    4 1
   4    2    5 1
   5    2   38 1
   6    4   32 1
   7    5    6 ar
   8    5   10 ar
   9    6    7 ar
  10    6   12 1
  11    7    8 ar
  12    7   39 1
  13    8    9 ar
  14    8   11 1
  15    9   10 ar
  16    9   13 1
  17   10   40 1
  18   11   41 1
  19   11   42 1
  20   11   43 1
  21   12   44 1
  22   12   45 1
  23   12   46 1
  24   13   14 2
  25   13   15 am
  26   15   16 1
  27   15   20 1
  28   16   17 1
  29   16   47 1
  30   16   48 1
  31   17   18 1
  32   17   49 1
  33   17   50 1
  34   18   19 1
  35   18   21 1
  36   18   22 1
  37   19   20 1
  38   19   51 1
  39   19   52 1
  40   20   53 1
  41   20   54 1
  42   22   23 ar
  43   22   27 ar
  44   23   24 ar
  45   23   55 1
  46   24   25 ar
  47   24   56 1
  48   25   26 ar
  49   25   28 1
  50   26   27 ar
  51   26   57 1
  52   27   58 1
  53   28   29 3
  54   30   31 1
  55   30   34 1
  56   30   35 am
  57   31   32 1
  58   31   59 1
  59   31   60 1
  60   32   33 1
  61   32   61 1
  62   33   34 1
  63   33   62 1
  64   33   63 1
  65   34   64 1
  66   34   65 1
  67   35   36 2
  68   35   37 1
  69   37   66 1
  70   37   67 1
  71   37   68 1

#	End of record

