#	Name: ASD01884610
#	Creating user name:	WinNT
#	Creation time:	15. 06. 2019 19:48

#	Modifying user name:	WinNT
#	Modification time:	15. 06. 2019 19:48

#	Program:	/corina/corina34_cracker 3.40 0067  02.08.2006

@<TRIPOS>MOLECULE
ASD01884610
  35   37    0    0    0
SMALL
NO_CHARGES


@<TRIPOS>ATOM
   1 C1            -0.0164     1.3575     0.0095 C.2     
   2 C2             0.0021    -0.0041     0.0020 C.2     
   3 C3             1.2441    -0.6750    -0.0134 C.2     
   4 C4             2.4025     0.0466    -0.0206 C.2     
   5 N5             2.3701     1.4022    -0.0126 N.am    
   6 C6             1.1987     2.0651     0.0017 C.2     
   7 O7             1.1913     3.2855     0.0087 O.2     
   8 C8             3.6267     2.1553    -0.0196 C.3     
   9 C9             1.2899    -2.1582    -0.0214 C.ar    
  10 C10            4.0448     2.4216    -1.4427 C.ar    
  11 C11            3.4608     3.4563    -2.1534 C.ar    
  12 C12            3.8454     3.7011    -3.4606 C.ar    
  13 C13            4.8135     2.9109    -4.0554 C.ar    
  14 C14            5.3963     1.8764    -3.3426 C.ar    
  15 C15            5.0154     1.6363    -2.0361 C.ar    
  16 F16            5.1895     3.1483    -5.3312 F       
  17 F17            2.5156     4.2266    -1.5716 F       
  18 C18            0.8129    -2.8782     1.0722 C.ar    
  19 C19            0.8577    -4.2574     1.0601 C.ar    
  20 C20            1.3759    -4.9257    -0.0359 C.ar    
  21 C21            1.8510    -4.2150    -1.1248 C.ar    
  22 C22            1.8048    -2.8358    -1.1248 C.ar    
  23 Cl23           1.4306    -6.6609    -0.0446 Cl      
  24 H24           -0.9563     1.8894     0.0169 H       
  25 H25           -0.9217    -0.5636     0.0082 H       
  26 H26            3.3529    -0.4662    -0.0325 H       
  27 H27            3.4855     3.1025     0.5010 H       
  28 H28            4.4004     1.5757     0.4840 H       
  29 H29            3.3901     4.5078    -4.0159 H       
  30 H30            6.1518     1.2596    -3.8066 H       
  31 H31            5.4704     0.8294    -1.4809 H       
  32 H32            0.4092    -2.3576     1.9280 H       
  33 H33            0.4883    -4.8162     1.9072 H       
  34 H34            2.2543    -4.7409    -1.9775 H       
  35 H35            2.1757    -2.2822    -1.9747 H       
@<TRIPOS>BOND
   1    1    2 2
   2    1    6 1
   3    1   24 1
   4    2    3 1
   5    2   25 1
   6    3    4 2
   7    3    9 1
   8    4    5 1
   9    4   26 1
  10    5    6 am
  11    5    8 1
  12    6    7 2
  13    8   10 1
  14    8   27 1
  15    8   28 1
  16    9   18 ar
  17    9   22 ar
  18   10   11 ar
  19   10   15 ar
  20   11   12 ar
  21   11   17 1
  22   12   13 ar
  23   12   29 1
  24   13   14 ar
  25   13   16 1
  26   14   15 ar
  27   14   30 1
  28   15   31 1
  29   18   19 ar
  30   18   32 1
  31   19   20 ar
  32   19   33 1
  33   20   21 ar
  34   20   23 1
  35   21   22 ar
  36   21   34 1
  37   22   35 1

#	End of record

