#	Name: ASD03090453
#	Creating user name:	WinNT
#	Creation time:	15. 06. 2019 20:28

#	Modifying user name:	WinNT
#	Modification time:	15. 06. 2019 20:28

#	Program:	/corina/corina34_cracker 3.40 0067  02.08.2006

@<TRIPOS>MOLECULE
ASD03090453
  40   42    0    0    0
SMALL
NO_CHARGES


@<TRIPOS>ATOM
   1 C1            -0.0179     1.4718     0.0101 C.2     
   2 C2             0.0021    -0.0041     0.0020 C.ar    
   3 C3             1.2205    -0.6880    -0.0133 C.ar    
   4 C4             1.2349    -2.0650    -0.0209 C.ar    
   5 C5             0.0396    -2.7744    -0.0138 C.ar    
   6 C6            -1.1744    -2.0978     0.0010 C.ar    
   7 C7            -1.1973    -0.7210     0.0154 C.ar    
   8 O8             1.0266     2.0940     0.0035 O.2     
   9 N9            -1.1942     2.1298     0.0193 N.am    
  10 O10            0.0580    -4.1314    -0.0217 O.3     
  11 C11           -1.2062    -4.7974    -0.0137 C.3     
  12 C12           -0.9852    -6.3113    -0.0245 C.3     
  13 F13           -0.2546    -6.6840     1.1089 F       
  14 F14           -2.2230    -6.9633    -0.0167 F       
  15 F15           -0.2760    -6.6709    -1.1755 F       
  16 C16           -1.2140     3.5946     0.0273 C.3     
  17 N17           -5.5112     5.0583    -2.1445 N.pl3   
  18 C18           -6.6970     5.4574    -1.5906 C.2     
  19 C19           -6.6113     5.4225    -0.2514 C.2     
  20 C20           -5.2601     4.9634     0.0793 C.ar    
  21 C21           -4.5809     4.7281     1.2764 C.ar    
  22 C22           -3.2867     4.2912     1.2473 C.ar    
  23 C23           -2.6415     4.0776     0.0367 C.ar    
  24 C24           -3.2929     4.3030    -1.1559 C.ar    
  25 C25           -4.6107     4.7489    -1.1499 C.ar    
  26 H26            2.1496    -0.1375    -0.0195 H       
  27 H27            2.1762    -2.5943    -0.0327 H       
  28 H28           -2.1010    -2.6526     0.0061 H       
  29 H29           -2.1409    -0.1960     0.0317 H       
  30 H30           -2.0275     1.6334     0.0205 H       
  31 H31           -1.7588    -4.5172     0.8831 H       
  32 H32           -1.7754    -4.5070    -0.8968 H       
  33 H33           -0.7010     3.9600     0.9169 H       
  34 H34           -0.7094     3.9697    -0.8630 H       
  35 H35           -5.3329     4.9982    -3.0961 H       
  36 H36           -7.5722     5.7566    -2.1483 H       
  37 H37           -7.3907     5.6834     0.4492 H       
  38 H38           -5.0764     4.8921     2.2219 H       
  39 H39           -2.7617     4.1097     2.1735 H       
  40 H40           -2.7822     4.1342    -2.0925 H       
@<TRIPOS>BOND
   1    1    2 1
   2    1    8 2
   3    1    9 am
   4    2    3 ar
   5    2    7 ar
   6    3    4 ar
   7    3   26 1
   8    4    5 ar
   9    4   27 1
  10    5    6 ar
  11    5   10 1
  12    6    7 ar
  13    6   28 1
  14    7   29 1
  15    9   16 1
  16    9   30 1
  17   10   11 1
  18   11   12 1
  19   11   31 1
  20   11   32 1
  21   12   13 1
  22   12   14 1
  23   12   15 1
  24   16   23 1
  25   16   33 1
  26   16   34 1
  27   17   18 1
  28   17   25 1
  29   17   35 1
  30   18   19 2
  31   18   36 1
  32   19   20 1
  33   19   37 1
  34   20   21 ar
  35   20   25 ar
  36   21   22 ar
  37   21   38 1
  38   22   23 ar
  39   22   39 1
  40   23   24 ar
  41   24   25 ar
  42   24   40 1

#	End of record

