#	Name: ASD01180196
#	Creating user name:	WinNT
#	Creation time:	15. 06. 2019 19:06

#	Modifying user name:	WinNT
#	Modification time:	15. 06. 2019 19:06

#	Program:	/corina/corina34_cracker 3.40 0067  02.08.2006

@<TRIPOS>MOLECULE
ASD01180196
  67   69    0    0    0
SMALL
NO_CHARGES


@<TRIPOS>ATOM
   1 C1             1.3852     1.4115    -0.9097 C.ar    
   2 C2             1.3389     0.0335    -0.8504 C.ar    
   3 C3             1.8568    -0.6313     0.2595 C.ar    
   4 C4             2.4188     0.1000     1.3036 C.ar    
   5 C5             2.4599     1.4781     1.2338 C.ar    
   6 C6             1.9445     2.1327     0.1299 C.ar    
   7 C7             1.8094    -2.1129     0.3291 C.ar    
   8 C8             2.3832    -2.8792    -0.6833 C.ar    
   9 C9             2.3362    -4.2568    -0.6135 C.ar    
  10 C10            1.7205    -4.8768     0.4588 C.ar    
  11 C11            1.1493    -4.1210     1.4666 C.ar    
  12 C12            1.1960    -2.7428     1.4100 C.ar    
  13 C13            1.6714    -6.3814     0.5290 C.3     
  14 C14            2.7647    -6.8838     1.4741 C.3     
  15 N15            0.3611    -6.8045     1.0293 N.pl3   
  16 C16           -0.0932    -8.0886     0.7808 C.ar    
  17 N17           -1.2345    -8.4941     1.3205 N.ar    
  18 C18           -1.7050    -9.7061     1.1119 C.ar    
  19 C19           -1.0073   -10.6085     0.3078 C.ar    
  20 C20            0.2037   -10.2057    -0.2763 C.ar    
  21 C21            0.6527    -8.9351    -0.0378 C.ar    
  22 C22           -1.5349   -11.9667     0.0754 C.2     
  23 N23           -2.6985   -12.3435     0.6413 N.am    
  24 O24           -0.9198   -12.7459    -0.6268 O.2     
  25 C25           -3.2224   -13.6921     0.4106 C.3     
  26 C26           -4.5451   -13.8607     1.1609 C.3     
  27 C27           -5.0839   -15.2479     0.9235 C.2     
  28 O28           -6.2429   -15.6232     1.4872 O.3     
  29 O29           -4.4728   -16.0222     0.2258 O.2     
  30 C30            4.1378    -6.5291     0.8999 C.3     
  31 C31            5.2235    -6.8843     1.9178 C.3     
  32 C32            4.3704    -7.3180    -0.3902 C.3     
  33 C33            0.7290    -0.7508    -1.9835 C.3     
  34 C34            3.0671     2.2706     2.3626 C.3     
  35 H35            0.9882     1.9275    -1.7714 H       
  36 H36            2.8213    -0.4102     2.1662 H       
  37 H37            1.9790     3.2110     0.0792 H       
  38 H38            2.8635    -2.3960    -1.5213 H       
  39 H39            2.7806    -4.8517    -1.3977 H       
  40 H40            0.6699    -4.6103     2.3016 H       
  41 H41            0.7497    -2.1535     2.1975 H       
  42 H42            1.8320    -6.7970    -0.4658 H       
  43 H43            2.6462    -6.4126     2.4498 H       
  44 H44            2.6839    -7.9655     1.5808 H       
  45 H45           -0.1882    -6.1849     1.5346 H       
  46 H46           -2.6380   -10.0044     1.5668 H       
  47 H47            0.7662   -10.8817    -0.9033 H       
  48 H48            1.5809    -8.5944    -0.4725 H       
  49 H49           -3.1891   -11.7219     1.2015 H       
  50 H50           -3.3886   -13.8396    -0.6565 H       
  51 H51           -2.5036   -14.4278     0.7714 H       
  52 H52           -4.3788   -13.7132     2.2280 H       
  53 H53           -5.2638   -13.1250     0.8000 H       
  54 H54           -6.5482   -16.5227     1.3060 H       
  55 H55            4.1769    -5.4612     0.6848 H       
  56 H56            5.1844    -7.9522     2.1328 H       
  57 H57            6.2017    -6.6316     1.5087 H       
  58 H58            5.0578    -6.3223     2.8369 H       
  59 H59            3.6583    -6.9925    -1.1485 H       
  60 H60            5.3856    -7.1419    -0.7457 H       
  61 H61            4.2330    -8.3816    -0.1954 H       
  62 H62            1.4858    -0.9364    -2.7456 H       
  63 H63            0.3527    -1.7016    -1.6060 H       
  64 H64           -0.0926    -0.1817    -2.4183 H       
  65 H65            4.1318     2.4110     2.1764 H       
  66 H66            2.5783     3.2426     2.4281 H       
  67 H67            2.9302     1.7312     3.2999 H       
@<TRIPOS>BOND
   1    1    2 ar
   2    1    6 ar
   3    1   35 1
   4    2    3 ar
   5    2   33 1
   6    3    4 ar
   7    3    7 1
   8    4    5 ar
   9    4   36 1
  10    5    6 ar
  11    5   34 1
  12    6   37 1
  13    7    8 ar
  14    7   12 ar
  15    8    9 ar
  16    8   38 1
  17    9   10 ar
  18    9   39 1
  19   10   11 ar
  20   10   13 1
  21   11   12 ar
  22   11   40 1
  23   12   41 1
  24   13   14 1
  25   13   15 1
  26   13   42 1
  27   14   30 1
  28   14   43 1
  29   14   44 1
  30   15   16 1
  31   15   45 1
  32   16   17 ar
  33   16   21 ar
  34   17   18 ar
  35   18   19 ar
  36   18   46 1
  37   19   20 ar
  38   19   22 1
  39   20   21 ar
  40   20   47 1
  41   21   48 1
  42   22   23 am
  43   22   24 2
  44   23   25 1
  45   23   49 1
  46   25   26 1
  47   25   50 1
  48   25   51 1
  49   26   27 1
  50   26   52 1
  51   26   53 1
  52   27   28 1
  53   27   29 2
  54   28   54 1
  55   30   31 1
  56   30   32 1
  57   30   55 1
  58   31   56 1
  59   31   57 1
  60   31   58 1
  61   32   59 1
  62   32   60 1
  63   32   61 1
  64   33   62 1
  65   33   63 1
  66   33   64 1
  67   34   65 1
  68   34   66 1
  69   34   67 1

#	End of record

