#	Name: ASD05170116
#	Creating user name:	WinNT
#	Creation time:	15. 06. 2019 20:57

#	Modifying user name:	WinNT
#	Modification time:	15. 06. 2019 20:57

#	Program:	/corina/corina34_cracker 3.40 0067  02.08.2006

@<TRIPOS>MOLECULE
ASD05170116
  42   45    0    0    0
SMALL
NO_CHARGES


@<TRIPOS>ATOM
   1 C1            -0.0393     1.3812    -0.0732 C.ar    
   2 C2            -0.0237    -0.0024    -0.0915 C.ar    
   3 C3             1.2049    -0.6509    -0.0951 C.ar    
   4 C4             2.3647     0.0995    -0.0806 C.ar    
   5 N5             2.3166     1.4182    -0.0633 N.ar    
   6 C6             1.1665     2.0708    -0.0592 C.ar    
   7 O7             1.1641     3.4277    -0.0413 O.3     
   8 C8             2.4362     4.0785    -0.0276 C.3     
   9 C9             2.2361     5.5721    -0.0086 C.2     
  10 C10            1.0033     6.2385     0.0009 C.2     
  11 N11            3.1858     6.4781     0.0077 N.2     
  12 C12            1.3188     7.5674     0.0151 C.2     
  13 C13            0.4761     8.7726     0.0344 C.2     
  14 N14            2.6936     7.6546     0.0301 N.pl3   
  15 C15            3.3714     8.9555     0.0833 C.3     
  16 C16            2.5029    10.0049    -0.6090 C.3     
  17 N17            1.1093     9.9525    -0.1731 N.am    
  18 O18           -0.7236     8.7133     0.2256 O.2     
  19 C19            3.5922     9.3572     1.5430 C.3     
  20 Cl20           1.2818    -2.3851    -0.1172 Cl      
  21 C21            0.4170    11.1438     0.0391 C.ar    
  22 N22            0.3751    11.6710     1.2523 N.ar    
  23 C23           -0.2687    12.7964     1.4964 C.ar    
  24 C24           -0.9276    13.4697     0.4868 C.ar    
  25 C25           -0.9090    12.9517    -0.8009 C.ar    
  26 C26           -0.2196    11.7716    -1.0283 C.ar    
  27 F27           -0.1708    11.2344    -2.2670 F       
  28 H28           -0.9765     1.9178    -0.0743 H       
  29 H29           -0.9454    -0.5651    -0.1023 H       
  30 H30            3.3227    -0.3992    -0.0830 H       
  31 H31            2.9901     3.7748     0.8607 H       
  32 H32            2.9973     3.7984    -0.9191 H       
  33 H33            0.0177     5.7970    -0.0023 H       
  34 H34            4.3331     8.8859    -0.4251 H       
  35 H35            2.9035    10.9945    -0.3894 H       
  36 H36            2.5436     9.8413    -1.6859 H       
  37 H37            4.2085     8.6063     2.0374 H       
  38 H38            4.0955    10.3233     1.5819 H       
  39 H39            2.6298     9.4284     2.0498 H       
  40 H40           -0.2809    13.1962     2.4996 H       
  41 H41           -1.4523    14.3900     0.6970 H       
  42 H42           -1.4165    13.4593    -1.6078 H       
@<TRIPOS>BOND
   1    1    2 ar
   2    1    6 ar
   3    1   28 1
   4    2    3 ar
   5    2   29 1
   6    3    4 ar
   7    3   20 1
   8    4    5 ar
   9    4   30 1
  10    5    6 ar
  11    6    7 1
  12    7    8 1
  13    8    9 1
  14    8   31 1
  15    8   32 1
  16    9   11 2
  17    9   10 1
  18   10   12 2
  19   10   33 1
  20   11   14 1
  21   12   14 1
  22   12   13 1
  23   13   17 am
  24   13   18 2
  25   14   15 1
  26   15   16 1
  27   15   19 1
  28   15   34 1
  29   16   17 1
  30   16   35 1
  31   16   36 1
  32   17   21 1
  33   19   37 1
  34   19   38 1
  35   19   39 1
  36   21   22 ar
  37   21   26 ar
  38   22   23 ar
  39   23   24 ar
  40   23   40 1
  41   24   25 ar
  42   24   41 1
  43   25   26 ar
  44   25   42 1
  45   26   27 1

#	End of record

