#	Name: ASD01912154
#	Creating user name:	WinNT
#	Creation time:	15. 06. 2019 19:59

#	Modifying user name:	WinNT
#	Modification time:	15. 06. 2019 19:59

#	Program:	/corina/corina34_cracker 3.40 0067  02.08.2006

@<TRIPOS>MOLECULE
ASD01912154
  43   45    0    0    0
SMALL
NO_CHARGES


@<TRIPOS>ATOM
   1 C1            -0.0169     1.3932     0.0097 C.ar    
   2 C2             0.0021    -0.0041     0.0020 C.ar    
   3 C3            -1.2261    -0.7403     0.0093 C.1     
   4 C4            -2.2331    -1.3439     0.0153 C.1     
   5 C5            -3.4613    -2.0802     0.0226 C.ar    
   6 C6            -3.4601    -3.4815     0.0151 C.ar    
   7 N7            -4.6147    -4.1223     0.0222 N.ar    
   8 C8            -5.7614    -3.4590     0.0362 C.ar    
   9 N9            -5.8059    -2.1350     0.0437 N.ar    
  10 C10           -4.6965    -1.4187     0.0433 C.ar    
  11 N11           -6.9523    -4.1728     0.0427 N.am    
  12 C12            1.2254    -0.6794    -0.0133 C.ar    
  13 C13            2.4042     0.0364    -0.0207 C.ar    
  14 C14            2.3776     1.4200    -0.0126 C.ar    
  15 C15            1.1700     2.0956     0.0021 C.ar    
  16 C16           -8.2854    -3.5593     0.0582 C.3     
  17 C17           -7.0323    -5.5146     0.0300 C.2     
  18 C18           -8.4811    -5.9496     0.0525 C.3     
  19 C19           -9.2511    -4.6828     0.4961 C.3     
  20 O20           -6.0816    -6.2669     0.0036 O.2     
  21 O21           -8.9017    -6.3554    -1.2515 O.3     
  22 C22           -8.7316    -7.7507    -1.5091 C.3     
  23 C23           -9.4557    -4.6692     2.0123 C.3     
  24 C24          -10.5900    -4.5714    -0.2360 C.3     
  25 H25           -0.9586     1.9218     0.0170 H       
  26 H26           -2.5293    -4.0290     0.0033 H       
  27 H27           -4.7406    -0.3396     0.0498 H       
  28 H28            1.2477    -1.7591    -0.0189 H       
  29 H29            3.3505    -0.4841    -0.0325 H       
  30 H30            3.3040     1.9752    -0.0177 H       
  31 H31            1.1570     3.1755     0.0081 H       
  32 H32           -8.3141    -2.7373     0.7733 H       
  33 H33           -8.5483    -3.2031    -0.9379 H       
  34 H34           -8.6257    -6.7576     0.7697 H       
  35 H35           -7.6774    -8.0115    -1.4155 H       
  36 H36           -9.3137    -8.3266    -0.7896 H       
  37 H37           -9.0740    -7.9781    -2.5186 H       
  38 H38           -8.4860    -4.6813     2.5099 H       
  39 H39           -9.9993    -3.7685     2.2975 H       
  40 H40          -10.0276    -5.5482     2.3096 H       
  41 H41          -11.1996    -5.4472    -0.0135 H       
  42 H42          -11.1109    -3.6727     0.0941 H       
  43 H43          -10.4132    -4.5151    -1.3101 H       
@<TRIPOS>BOND
   1    1    2 ar
   2    1   15 ar
   3    1   25 1
   4    2    3 1
   5    2   12 ar
   6    3    4 3
   7    4    5 1
   8    5    6 ar
   9    5   10 ar
  10    6    7 ar
  11    6   26 1
  12    7    8 ar
  13    8    9 ar
  14    8   11 1
  15    9   10 ar
  16   10   27 1
  17   11   16 1
  18   11   17 am
  19   12   13 ar
  20   12   28 1
  21   13   14 ar
  22   13   29 1
  23   14   15 ar
  24   14   30 1
  25   15   31 1
  26   16   19 1
  27   16   32 1
  28   16   33 1
  29   17   18 1
  30   17   20 2
  31   18   19 1
  32   18   21 1
  33   18   34 1
  34   19   23 1
  35   19   24 1
  36   21   22 1
  37   22   35 1
  38   22   36 1
  39   22   37 1
  40   23   38 1
  41   23   39 1
  42   23   40 1
  43   24   41 1
  44   24   42 1
  45   24   43 1

#	End of record

