#	Name: ASD01148564
#	Creating user name:	WinNT
#	Creation time:	15. 06. 2019 19:02

#	Modifying user name:	WinNT
#	Modification time:	15. 06. 2019 19:02

#	Program:	/corina/corina34_cracker 3.40 0067  02.08.2006

@<TRIPOS>MOLECULE
ASD01148564
  61   65    0    0    0
SMALL
NO_CHARGES


@<TRIPOS>ATOM
   1 C1            -0.0649     0.5056     0.5965 C.ar    
   2 C2            -0.3259    -0.8527     0.6111 C.ar    
   3 C3            -1.6240    -1.3087     0.4672 C.ar    
   4 C4            -2.6605    -0.4059     0.3089 C.ar    
   5 C5            -2.3991     0.9513     0.2944 C.ar    
   6 C6            -1.1029     1.4076     0.4433 C.ar    
   7 C7            -3.5284     1.9341     0.1219 C.3     
   8 O8            -4.7483     1.4246     0.6978 O.3     
   9 C9            -3.2882     3.2076     0.9672 C.3     
  10 C10           -4.0357     2.8978     2.2502 C.2     
  11 N11           -4.8231     1.8973     2.0282 N.2     
  12 C12           -3.8889     3.6135     3.5291 C.ar    
  13 C13           -4.6745     3.2088     4.6924 C.ar    
  14 C14           -2.9990     4.6732     3.6383 C.ar    
  15 C15           -2.8406     5.3628     4.8271 C.ar    
  16 C16           -3.5649     5.0246     5.9625 C.ar    
  17 C17           -4.5128     3.9139     5.9084 C.ar    
  18 C18           -3.3747     5.7768     7.2148 C.2     
  19 O19           -2.8467     5.2424     8.1706 O.2     
  20 N20           -3.7860     7.0574     7.3009 N.am    
  21 C21           -5.2641     3.5375     7.0287 C.ar    
  22 C22           -5.5799     2.1419     4.6294 C.ar    
  23 C23           -3.7246     2.2847    -1.3544 C.3     
  24 F24           -4.0091     1.1207    -2.0764 F       
  25 F25           -4.7881     3.1846    -1.4826 F       
  26 F26           -2.5560     2.8695    -1.8541 F       
  27 Cl27          -1.9525    -3.0132     0.4849 Cl      
  28 Cl28           1.5637     1.0788     0.7775 Cl      
  29 C29           -3.6833     7.7758     8.5735 C.3     
  30 C30           -2.3453     8.4644     8.6551 C.ar    
  31 N31           -1.2942     7.7968     9.0888 N.ar    
  32 C32           -4.2917     7.6771     6.2161 C.2     
  33 C33           -0.1040     8.3582     9.1770 C.ar    
  34 C34            0.0834     9.6784     8.8146 C.ar    
  35 C35           -0.9989    10.4128     8.3537 C.ar    
  36 C36           -2.2329     9.7869     8.2691 C.ar    
  37 O37           -4.2946     7.1128     5.1405 O.2     
  38 O38           -4.7937     8.9213     6.3247 O.3     
  39 C39           -5.3215     9.5270     5.1153 C.3     
  40 C40           -6.2926     1.7973     5.7393 C.ar    
  41 C41           -6.1371     2.4944     6.9344 C.ar    
  42 H42            0.4835    -1.5571     0.7344 H       
  43 H43           -3.6739    -0.7617     0.1962 H       
  44 H44           -0.8992     2.4682     0.4319 H       
  45 H45           -2.2250     3.3473     1.1629 H       
  46 H46           -3.7105     4.0839     0.4753 H       
  47 H47           -2.4174     4.9655     2.7766 H       
  48 H48           -2.1380     6.1817     4.8733 H       
  49 H49           -5.1524     4.0698     7.9617 H       
  50 H50           -5.7129     1.5959     3.7071 H       
  51 H51           -4.4786     8.5185     8.6367 H       
  52 H52           -3.7793     7.0696     9.3982 H       
  53 H53            0.7337     7.7794     9.5369 H       
  54 H54            1.0603    10.1327     8.8898 H       
  55 H55           -0.8823    11.4466     8.0638 H       
  56 H56           -3.0974    10.3283     7.9142 H       
  57 H57           -6.1364     8.9152     4.7284 H       
  58 H58           -5.6934    10.5263     5.3419 H       
  59 H59           -4.5311     9.5943     4.3678 H       
  60 H60           -6.9905     0.9745     5.6898 H       
  61 H61           -6.7158     2.2047     7.7990 H       
@<TRIPOS>BOND
   1    1    2 ar
   2    1   28 1
   3    1    6 ar
   4    2    3 ar
   5    2   42 1
   6    3    4 ar
   7    3   27 1
   8    4    5 ar
   9    4   43 1
  10    5    6 ar
  11    5    7 1
  12    6   44 1
  13    7    8 1
  14    7    9 1
  15    7   23 1
  16    8   11 1
  17    9   10 1
  18    9   45 1
  19    9   46 1
  20   10   11 2
  21   10   12 1
  22   12   13 ar
  23   12   14 ar
  24   13   22 ar
  25   13   17 ar
  26   14   15 ar
  27   14   47 1
  28   15   16 ar
  29   15   48 1
  30   16   17 ar
  31   16   18 1
  32   17   21 ar
  33   18   19 2
  34   18   20 am
  35   20   29 1
  36   20   32 am
  37   21   41 ar
  38   21   49 1
  39   22   40 ar
  40   22   50 1
  41   23   24 1
  42   23   25 1
  43   23   26 1
  44   29   30 1
  45   29   51 1
  46   29   52 1
  47   30   31 ar
  48   30   36 ar
  49   31   33 ar
  50   32   37 2
  51   32   38 1
  52   33   34 ar
  53   33   53 1
  54   34   35 ar
  55   34   54 1
  56   35   36 ar
  57   35   55 1
  58   36   56 1
  59   38   39 1
  60   39   57 1
  61   39   58 1
  62   39   59 1
  63   40   41 ar
  64   40   60 1
  65   41   61 1

#	End of record

