#	Name: ASD01148508
#	Creating user name:	WinNT
#	Creation time:	15. 06. 2019 19:02

#	Modifying user name:	WinNT
#	Modification time:	15. 06. 2019 19:02

#	Program:	/corina/corina34_cracker 3.40 0067  02.08.2006

@<TRIPOS>MOLECULE
ASD01148508
  58   62    0    0    0
SMALL
NO_CHARGES


@<TRIPOS>ATOM
   1 C1            -0.0180     1.4346     0.0450 C.ar    
   2 C2            -0.0166     0.0527     0.0405 C.ar    
   3 C3             1.1824    -0.6376     0.0176 C.ar    
   4 C4             2.3790     0.0562    -0.0007 C.ar    
   5 C5             2.3764     1.4385     0.0038 C.ar    
   6 C6             1.1784     2.1275     0.0267 C.ar    
   7 C7             3.6799     2.1944    -0.0161 C.3     
   8 O8             4.6902     1.4619    -0.7387 O.3     
   9 C9             3.5592     3.4841    -0.8626 C.3     
  10 C10            4.0456     3.0305    -2.2259 C.2     
  11 N11            4.6593     1.9023    -2.0819 N.2     
  12 C12            3.8513     3.7514    -3.4956 C.ar    
  13 C13            4.3743     3.1985    -4.7425 C.ar    
  14 C14            3.1650     4.9577    -3.5160 C.ar    
  15 C15            2.9679     5.6559    -4.6941 C.ar    
  16 C16            3.4476     5.1801    -5.9065 C.ar    
  17 C17            4.1729     3.9127    -5.9474 C.ar    
  18 C18            3.2217     5.9460    -7.1459 C.2     
  19 O19            3.7333     5.5820    -8.1874 O.2     
  20 N20            2.4484     7.0496    -7.1246 N.am    
  21 C21            4.6741     3.3942    -7.1481 C.ar    
  22 C22            5.0674     1.9816    -4.7702 C.ar    
  23 C23            4.1465     2.5134     1.4056 C.3     
  24 F24            4.3126     1.3222     2.1202 F       
  25 F25            5.3643     3.1999     1.3538 F       
  26 F26            3.1890     3.3098     2.0430 F       
  27 Cl27           1.1850    -2.3736     0.0125 Cl      
  28 N28            2.2338     7.7774    -8.3023 N.pl3   
  29 C29            1.3245     7.2600    -9.3278 C.3     
  30 C30            2.8868     8.9964    -8.4988 C.ar    
  31 C31            2.6752     9.7193    -9.6659 C.ar    
  32 C32            3.3221    10.9244    -9.8568 C.ar    
  33 C33            4.1798    11.4116    -8.8876 C.ar    
  34 C34            4.3931    10.6943    -7.7247 C.ar    
  35 C35            3.7450     9.4913    -7.5250 C.ar    
  36 C36            5.5383     1.5019    -5.9562 C.ar    
  37 C37            5.3449     2.2074    -7.1409 C.ar    
  38 H38           -0.9538     1.9735     0.0584 H       
  39 H39           -0.9512    -0.4884     0.0552 H       
  40 H40            3.3152    -0.4821    -0.0182 H       
  41 H41            1.1768     3.2075     0.0302 H       
  42 H42            2.5229     3.8182    -0.9130 H       
  43 H43            4.2013     4.2698    -0.4644 H       
  44 H44            2.7761     5.3598    -2.5922 H       
  45 H45            2.4288     6.5915    -4.6699 H       
  46 H46            2.0404     7.3400    -6.2939 H       
  47 H47            4.5297     3.9311    -8.0739 H       
  48 H48            5.2281     1.4270    -3.8575 H       
  49 H49            0.3151     7.6236    -9.1353 H       
  50 H50            1.6524     7.6010   -10.3098 H       
  51 H51            1.3293     6.1703    -9.3013 H       
  52 H52            2.0058     9.3392   -10.4234 H       
  53 H53            3.1583    11.4868   -10.7641 H       
  54 H54            4.6845    12.3544    -9.0393 H       
  55 H55            5.0638    11.0775    -6.9699 H       
  56 H56            3.9120     8.9315    -6.6166 H       
  57 H57            6.0726     0.5635    -5.9765 H       
  58 H58            5.7306     1.8082    -8.0673 H       
@<TRIPOS>BOND
   1    1    2 ar
   2    1    6 ar
   3    1   38 1
   4    2    3 ar
   5    2   39 1
   6    3    4 ar
   7    3   27 1
   8    4    5 ar
   9    4   40 1
  10    5    6 ar
  11    5    7 1
  12    6   41 1
  13    7    8 1
  14    7    9 1
  15    7   23 1
  16    8   11 1
  17    9   10 1
  18    9   42 1
  19    9   43 1
  20   10   11 2
  21   10   12 1
  22   12   13 ar
  23   12   14 ar
  24   13   22 ar
  25   13   17 ar
  26   14   15 ar
  27   14   44 1
  28   15   16 ar
  29   15   45 1
  30   16   17 ar
  31   16   18 1
  32   17   21 ar
  33   18   19 2
  34   18   20 am
  35   20   28 1
  36   20   46 1
  37   21   37 ar
  38   21   47 1
  39   22   36 ar
  40   22   48 1
  41   23   24 1
  42   23   25 1
  43   23   26 1
  44   28   29 1
  45   28   30 1
  46   29   49 1
  47   29   50 1
  48   29   51 1
  49   30   31 ar
  50   30   35 ar
  51   31   32 ar
  52   31   52 1
  53   32   33 ar
  54   32   53 1
  55   33   34 ar
  56   33   54 1
  57   34   35 ar
  58   34   55 1
  59   35   56 1
  60   36   37 ar
  61   36   57 1
  62   37   58 1

#	End of record

