#	Name: ASD02610051
#	Creating user name:	WinNT
#	Creation time:	15. 06. 2019 20:25

#	Modifying user name:	WinNT
#	Modification time:	15. 06. 2019 20:25

#	Program:	/corina/corina34_cracker 3.40 0067  02.08.2006

@<TRIPOS>MOLECULE
ASD02610051
  82   86    0    0    0
SMALL
NO_CHARGES


@<TRIPOS>ATOM
   1 O1             0.3771     1.0353    -0.5121 O.3     
   2 C2             1.6942     1.6160    -0.7030 C.3     
   3 C3             1.5854     2.9753    -1.4209 C.3     
   4 C4             2.3384     1.9586     0.6624 C.3     
   5 O5             1.3420     2.0870     1.6786 O.3     
   6 C6             3.0103     3.3246     0.3708 C.3     
   7 O7             2.0754     3.9776    -0.5146 O.3     
   8 N8             3.1735     4.0936     1.6070 N.pl3   
   9 C9             2.4372     2.9620    -2.6918 C.3     
  10 C10            4.2150     3.9927     2.4944 C.ar    
  11 C11            3.9430     4.9164     3.5174 C.ar    
  12 N12            2.7716     5.5221     3.2075 N.2     
  13 C13            2.3213     5.0447     2.0836 C.2     
  14 N14            5.3222     3.2604     2.5627 N.ar    
  15 C15            6.1548     3.3959     3.5730 C.ar    
  16 N16            5.9418     4.2500     4.5576 N.ar    
  17 C17            4.8619     5.0242     4.5755 C.ar    
  18 N18            4.6472     5.9162     5.6116 N.pl3   
  19 O19            2.2395     4.1812    -3.4105 O.3     
  20 P20            2.9815     4.5096    -4.8010 P.3     
  21 O21            4.5092     4.3751    -4.6138 O.co2   
  22 O22            2.5062     3.5169    -5.8854 O.co2   
  23 O23            2.6269     6.0125    -5.2567 O.3     
  24 P24            3.2525     7.0312    -6.3351 P.3     
  25 O25            2.8110     8.5360    -5.9708 O.3     
  26 O26            4.7937     6.9261    -6.3091 O.co2   
  27 O27            2.7354     6.6699    -7.7454 O.co2   
  28 P28            3.3184     9.9930    -6.4313 P.3     
  29 O29            3.7564     9.9423    -7.9346 O.co2   
  30 O30            2.1556    11.0289    -6.2608 O.co2   
  31 O31            4.5369    10.4253    -5.5466 O.co2   
  32 C32            0.2981    -0.3086    -0.4964 C.2     
  33 N33           -0.8948    -0.9116    -0.3233 N.am    
  34 O34            1.3022    -0.9780    -0.6384 O.2     
  35 C35           -0.9808    -2.3740    -0.3062 C.3     
  36 C36           -2.4360    -2.7969    -0.0960 C.3     
  37 N37           -2.5220    -4.2592    -0.0789 N.am    
  38 C38           -5.2178    -4.5462    -0.5533 C.ar    
  39 C39           -5.2169    -4.9395    -1.9025 C.ar    
  40 C40           -6.2995    -4.5636    -2.7354 C.ar    
  41 C41           -7.3511    -3.8054    -2.1987 C.ar    
  42 C42           -7.3184    -3.4409    -0.8868 C.ar    
  43 C43           -6.2579    -3.8160    -0.0651 C.ar    
  44 C44           -4.1619    -5.6977    -2.4390 C.ar    
  45 C45           -4.1866    -6.0648    -3.7497 C.ar    
  46 C46           -5.2443    -5.7013    -4.5782 C.ar    
  47 C47           -6.2985    -4.9588    -4.0908 C.ar    
  48 S48           -3.8830    -5.0019     0.5028 S.o2    
  49 O49           -3.6869    -6.3977     0.3220 O.2     
  50 O50           -4.1525    -4.4123     1.7673 O.2     
  51 N51           -7.3526    -4.6006    -4.9283 N.3     
  52 C52           -6.8763    -3.7895    -6.0566 C.3     
  53 C53           -8.0757    -5.7883    -5.4020 C.3     
  54 H54            2.3316     0.9361    -1.2681 H       
  55 H55            0.5446     3.1796    -1.6720 H       
  56 H56            3.0810     1.2107     0.9406 H       
  57 H57            1.6966     2.3012     2.5523 H       
  58 H58            3.9726     3.1818    -0.1208 H       
  59 H59            3.4891     2.8650    -2.4232 H       
  60 H60            2.1429     2.1195    -3.3177 H       
  61 H61            1.4037     5.3513     1.6035 H       
  62 H62            7.0454     2.7855     3.5980 H       
  63 H63            5.2889     5.9816     6.3360 H       
  64 H64            3.8551     6.4760     5.6133 H       
  65 H65           -1.6964    -0.3773    -0.2099 H       
  66 H66           -0.6208    -2.7702    -1.2557 H       
  67 H67           -0.3679    -2.7645     0.5062 H       
  68 H68           -2.7960    -2.4006     0.8535 H       
  69 H69           -3.0489    -2.4063    -0.9083 H       
  70 H70           -1.7817    -4.7925    -0.4084 H       
  71 H71           -8.1821    -3.5120    -2.8229 H       
  72 H72           -8.1292    -2.8573    -0.4763 H       
  73 H73           -6.2558    -3.5143     0.9718 H       
  74 H74           -3.3321    -5.9886    -1.8120 H       
  75 H75           -3.3717    -6.6474    -4.1535 H       
  76 H76           -5.2395    -6.0051    -5.6146 H       
  77 H77           -6.1499    -4.3613    -6.6341 H       
  78 H78           -7.7193    -3.5236    -6.6944 H       
  79 H79           -6.4062    -2.8816    -5.6786 H       
  80 H80           -8.4776    -6.3336    -4.5480 H       
  81 H81           -8.8933    -5.4801    -6.0536 H       
  82 H82           -7.3928    -6.4326    -5.9558 H       
@<TRIPOS>BOND
   1    1   32 1
   2    1    2 1
   3    2    3 1
   4    2    4 1
   5    2   54 1
   6    3    7 1
   7    3    9 1
   8    3   55 1
   9    4    5 1
  10    4    6 1
  11    4   56 1
  12    5   57 1
  13    6    8 1
  14    6    7 1
  15    6   58 1
  16    8   10 1
  17    8   13 1
  18    9   19 1
  19    9   59 1
  20    9   60 1
  21   10   11 ar
  22   10   14 ar
  23   11   12 1
  24   11   17 ar
  25   12   13 2
  26   13   61 1
  27   14   15 ar
  28   15   16 ar
  29   15   62 1
  30   16   17 ar
  31   17   18 1
  32   18   63 1
  33   18   64 1
  34   19   20 1
  35   20   21 ar
  36   20   22 ar
  37   20   23 1
  38   23   24 1
  39   24   25 1
  40   24   26 ar
  41   24   27 ar
  42   25   28 1
  43   28   29 ar
  44   28   30 ar
  45   28   31 ar
  46   32   33 am
  47   32   34 2
  48   33   35 1
  49   33   65 1
  50   35   36 1
  51   35   66 1
  52   35   67 1
  53   36   37 1
  54   36   68 1
  55   36   69 1
  56   37   48 am
  57   37   70 1
  58   38   39 ar
  59   38   48 1
  60   38   43 ar
  61   39   40 ar
  62   39   44 ar
  63   40   41 ar
  64   40   47 ar
  65   41   42 ar
  66   41   71 1
  67   42   43 ar
  68   42   72 1
  69   43   73 1
  70   44   45 ar
  71   44   74 1
  72   45   46 ar
  73   45   75 1
  74   46   47 ar
  75   46   76 1
  76   47   51 1
  77   48   49 2
  78   48   50 2
  79   51   52 1
  80   51   53 1
  81   52   77 1
  82   52   78 1
  83   52   79 1
  84   53   80 1
  85   53   81 1
  86   53   82 1

#	End of record

