#	Name: ASD02198542
#	Creating user name:	WinNT
#	Creation time:	15. 06. 2019 20:19

#	Modifying user name:	WinNT
#	Modification time:	15. 06. 2019 20:19

#	Program:	/corina/corina34_cracker 3.40 0067  02.08.2006

@<TRIPOS>MOLECULE
ASD02198542
  40   43    0    0    0
SMALL
NO_CHARGES


@<TRIPOS>ATOM
   1 C1            -0.0678     0.6203    -2.6826 C.2     
   2 C2             0.1700    -0.6684    -2.3301 C.2     
   3 N3             1.2116    -0.9862    -1.5295 N.pl3   
   4 N4             2.0276    -0.1174    -1.0577 N.2     
   5 C5             1.9118     1.1646    -1.3207 C.2     
   6 C6             0.8088     1.6136    -2.1847 C.2     
   7 C7             1.4088    -2.3310    -1.1986 C.ar    
   8 C8             0.5383    -4.4319    -0.4376 C.ar    
   9 C9             1.7989    -4.9911    -0.5442 C.ar    
  10 C10            2.8657    -4.2222    -0.9717 C.ar    
  11 C11            2.6745    -2.8941    -1.2991 C.ar    
  12 C12            2.8738     2.1402    -0.7572 C.2     
  13 C13            3.9982     1.8936     0.1661 C.2     
  14 N14            4.5422     3.0683     0.3660 N.2     
  15 O15            3.9723     3.9396    -0.2443 O.3     
  16 C16            2.9413     3.4888    -0.9695 C.2     
  17 C17            4.4210     0.5946     0.7442 C.ar    
  18 C18            3.4697    -0.2861     1.2556 C.ar    
  19 O19            0.6562     2.7943    -2.4609 O.2     
  20 C20            5.7705     0.2479     0.7728 C.ar    
  21 C21            6.1581    -0.9622     1.3115 C.ar    
  22 C22            5.2100    -1.8302     1.8225 C.ar    
  23 C23            3.8687    -1.4935     1.7919 C.ar    
  24 C24            0.3401    -3.1048    -0.7633 C.ar    
  25 F25           -0.3521    -6.6223    -0.2291 F       
  26 F26           -0.8092    -5.0898     1.4024 F       
  27 C27           -0.6216    -5.2738     0.0283 C.3     
  28 F28           -1.7802    -4.8909    -0.6560 F       
  29 H29           -0.8961     0.8790    -3.3256 H       
  30 H30           -0.4812    -1.4496    -2.6935 H       
  31 H31            1.9503    -6.0304    -0.2928 H       
  32 H32            3.8488    -4.6618    -1.0535 H       
  33 H33            3.5082    -2.2943    -1.6332 H       
  34 H34            2.2858     4.0771    -1.5945 H       
  35 H35            2.4222    -0.0241     1.2326 H       
  36 H36            6.5116     0.9247     0.3738 H       
  37 H37            7.2036    -1.2320     1.3339 H       
  38 H38            5.5178    -2.7762     2.2427 H       
  39 H39            3.1327    -2.1750     2.1923 H       
  40 H40           -0.6444    -2.6688    -0.6794 H       
@<TRIPOS>BOND
   1    1    2 2
   2    1    6 1
   3    1   29 1
   4    2    3 1
   5    2   30 1
   6    3    4 1
   7    3    7 1
   8    4    5 2
   9    5    6 1
  10    5   12 1
  11    6   19 2
  12    7   24 ar
  13    7   11 ar
  14    8    9 ar
  15    8   27 1
  16    8   24 ar
  17    9   10 ar
  18    9   31 1
  19   10   11 ar
  20   10   32 1
  21   11   33 1
  22   12   13 1
  23   12   16 2
  24   13   14 2
  25   13   17 1
  26   14   15 1
  27   15   16 1
  28   16   34 1
  29   17   20 ar
  30   17   18 ar
  31   18   23 ar
  32   18   35 1
  33   20   21 ar
  34   20   36 1
  35   21   22 ar
  36   21   37 1
  37   22   23 ar
  38   22   38 1
  39   23   39 1
  40   24   40 1
  41   25   27 1
  42   26   27 1
  43   27   28 1

#	End of record

