#	Name: ASD03091266
#	Creating user name:	WinNT
#	Creation time:	15. 06. 2019 20:30

#	Modifying user name:	WinNT
#	Modification time:	15. 06. 2019 20:30

#	Program:	/corina/corina34_cracker 3.40 0067  02.08.2006

@<TRIPOS>MOLECULE
ASD03091266
  48   52    0    0    0
SMALL
NO_CHARGES


@<TRIPOS>ATOM
   1 N1             0.9845     1.0077    -0.7070 N.2     
   2 C2             1.4279    -0.1067    -1.2279 C.2     
   3 N3             2.7475    -0.3208    -1.5221 N.am    
   4 C4             3.6681     0.6409    -1.2780 C.2     
   5 C5             3.1920     1.9031    -0.6927 C.ar    
   6 C6             4.0614     2.9526    -0.4050 C.ar    
   7 C7             3.5585     4.1193     0.1459 C.ar    
   8 C8             2.1946     4.2441     0.4115 C.ar    
   9 C9             1.3306     3.2240     0.1354 C.ar    
  10 C10            1.8108     2.0346    -0.4217 C.ar    
  11 O11            4.8457     0.4674    -1.5330 O.2     
  12 C12            5.7978     4.6771     0.7521 C.3     
  13 N13            4.4226     5.1780     0.4381 N.3     
  14 C14            3.9709     5.9156     1.6426 C.3     
  15 C15            5.1739     5.8496     2.6337 C.3     
  16 N16            5.2021     4.4207     3.0792 N.3     
  17 C17            5.5713     3.6263     1.8828 C.3     
  18 C18            6.3628     5.8673     1.6073 C.3     
  19 C19            3.8936     4.0066     3.6029 C.3     
  20 C20            3.1658    -1.5984    -2.1041 C.3     
  21 C21            0.4588    -1.1861    -1.5120 C.ar    
  22 C22           -0.5601    -1.4707    -0.6012 C.ar    
  23 C23           -1.4621    -2.4799    -0.8730 C.ar    
  24 C24           -1.3569    -3.2088    -2.0459 C.ar    
  25 C25           -0.3490    -2.9312    -2.9516 C.ar    
  26 C26            0.5551    -1.9210    -2.6946 C.ar    
  27 Cl27          -2.7303    -2.8362     0.2577 Cl      
  28 H28            5.1176     2.8573    -0.6093 H       
  29 H29            1.8173     5.1601     0.8417 H       
  30 H30            0.2774     3.3352     0.3472 H       
  31 H31            6.3948     4.3482    -0.0985 H       
  32 H32            3.7453     6.9516     1.3896 H       
  33 H33            3.0959     5.4319     2.0767 H       
  34 H34            5.1882     6.5995     3.4246 H       
  35 H35            4.7609     2.9490     1.6133 H       
  36 H36            6.4878     3.0663     2.0683 H       
  37 H37            7.3174     5.6255     2.0745 H       
  38 H38            6.4087     6.7984     1.0423 H       
  39 H39            3.1799     3.9349     2.7821 H       
  40 H40            3.9875     3.0354     4.0887 H       
  41 H41            3.5425     4.7424     4.3264 H       
  42 H42            3.0723    -1.5514    -3.1891 H       
  43 H43            4.2039    -1.7968    -1.8372 H       
  44 H44            2.5326    -2.3978    -1.7191 H       
  45 H45           -0.6423    -0.9032     0.3139 H       
  46 H46           -2.0646    -3.9976    -2.2541 H       
  47 H47           -0.2721    -3.5036    -3.8642 H       
  48 H48            1.3386    -1.7025    -3.4051 H       
@<TRIPOS>BOND
   1    1    2 2
   2    1   10 1
   3    2    3 1
   4    2   21 1
   5    3    4 am
   6    3   20 1
   7    4    5 1
   8    4   11 2
   9    5    6 ar
  10    5   10 ar
  11    6    7 ar
  12    6   28 1
  13    7    8 ar
  14    7   13 1
  15    8    9 ar
  16    8   29 1
  17    9   10 ar
  18    9   30 1
  19   12   13 1
  20   12   17 1
  21   12   18 1
  22   12   31 1
  23   13   14 1
  24   14   15 1
  25   14   32 1
  26   14   33 1
  27   15   16 1
  28   15   18 1
  29   15   34 1
  30   16   17 1
  31   16   19 1
  32   17   35 1
  33   17   36 1
  34   18   37 1
  35   18   38 1
  36   19   39 1
  37   19   40 1
  38   19   41 1
  39   20   42 1
  40   20   43 1
  41   20   44 1
  42   21   22 ar
  43   21   26 ar
  44   22   23 ar
  45   22   45 1
  46   23   24 ar
  47   23   27 1
  48   24   25 ar
  49   24   46 1
  50   25   26 ar
  51   25   47 1
  52   26   48 1

#	End of record

