#	Name: ASD06020106
#	Creating user name:	WinNT
#	Creation time:	15. 06. 2019 21:04

#	Modifying user name:	WinNT
#	Modification time:	15. 06. 2019 21:04

#	Program:	/corina/corina34_cracker 3.40 0067  02.08.2006

@<TRIPOS>MOLECULE
ASD06020106
  39   42    0    0    0
SMALL
NO_CHARGES


@<TRIPOS>ATOM
   1 C1             0.0027    -0.0072     0.0093 C.1     
   2 C2            -0.0172     1.4245     0.0313 C.ar    
   3 C3             1.1902     2.1503     0.0274 C.ar    
   4 C4             1.1542     3.5453     0.0485 C.ar    
   5 C5            -0.0619     4.2045     0.0730 C.ar    
   6 C6            -1.2467     3.4894     0.0767 C.ar    
   7 C7            -1.2316     2.1090     0.0507 C.ar    
   8 N8             0.0185    -1.1430    -0.0081 N.1     
   9 C9             6.1983     0.2751    -0.0575 C.ar    
  10 C10            4.8500     0.6480    -0.0367 C.ar    
  11 C11            3.8600    -0.3419    -0.0390 C.ar    
  12 C12            4.2972    -1.6912    -0.0633 C.ar    
  13 C13            5.6283    -1.9642    -0.0829 C.ar    
  14 N14            6.5376    -1.0020    -0.0793 N.ar    
  15 S15            4.0607     2.2208    -0.0057 S.3     
  16 C16            2.4844     1.4402     0.0018 C.2     
  17 N17            2.6228     0.1540    -0.0177 N.2     
  18 N18            7.1875     1.2544    -0.0612 N.pl3   
  19 C19           10.1325    -0.7339     0.3149 C.ar    
  20 N20            8.8664    -0.3804     0.2274 N.ar    
  21 C21            8.5239     0.8913     0.0302 C.ar    
  22 C22            9.5254     1.8506    -0.0834 C.ar    
  23 C23           10.8499     1.4353     0.0149 C.ar    
  24 N24           11.1094     0.1440     0.2127 N.ar    
  25 N25           11.8842     2.3522    -0.0915 N.pl3   
  26 C26           11.5867     3.7701    -0.3090 C.3     
  27 F27            2.3060     4.2514     0.0455 F       
  28 H28           -0.0867     5.2840     0.0896 H       
  29 H29           -2.1900     4.0149     0.0959 H       
  30 H30           -2.1611     1.5591     0.0493 H       
  31 H31            3.5770    -2.4960    -0.0658 H       
  32 H32            5.9532    -2.9940    -0.1010 H       
  33 H33            6.9428     2.1907    -0.1276 H       
  34 H34           10.3766    -1.7730     0.4797 H       
  35 H35            9.2812     2.8903    -0.2440 H       
  36 H36           12.8049     2.0550    -0.0219 H       
  37 H37           11.0346     3.8865    -1.2416 H       
  38 H38           10.9854     4.1463     0.5187 H       
  39 H39           12.5187     4.3323    -0.3659 H       
@<TRIPOS>BOND
   1    1    2 1
   2    1    8 3
   3    2    3 ar
   4    2    7 ar
   5    3    4 ar
   6    3   16 1
   7    4    5 ar
   8    4   27 1
   9    5    6 ar
  10    5   28 1
  11    6    7 ar
  12    6   29 1
  13    7   30 1
  14    9   10 ar
  15    9   14 ar
  16    9   18 1
  17   10   11 ar
  18   10   15 1
  19   11   12 ar
  20   11   17 1
  21   12   13 ar
  22   12   31 1
  23   13   14 ar
  24   13   32 1
  25   15   16 1
  26   16   17 2
  27   18   21 1
  28   18   33 1
  29   19   20 ar
  30   19   24 ar
  31   19   34 1
  32   20   21 ar
  33   21   22 ar
  34   22   23 ar
  35   22   35 1
  36   23   24 ar
  37   23   25 1
  38   25   26 1
  39   25   36 1
  40   26   37 1
  41   26   38 1
  42   26   39 1

#	End of record

