#	Name: ASD03331470
#	Creating user name:	WinNT
#	Creation time:	15. 06. 2019 20:39

#	Modifying user name:	WinNT
#	Modification time:	15. 06. 2019 20:39

#	Program:	/corina/corina34_cracker 3.40 0067  02.08.2006

@<TRIPOS>MOLECULE
ASD03331470
  56   58    0    0    0
SMALL
NO_CHARGES


@<TRIPOS>ATOM
   1 C1            -0.5460     0.6710     1.9799 C.2     
   2 C2            -0.3255    -0.7411     1.6209 C.2     
   3 N3            -1.2725    -1.7182     1.6177 N.pl3   
   4 C4            -0.6688    -2.8724     1.2323 C.2     
   5 C5             0.6378    -2.5867     1.0017 C.2     
   6 N6             0.8195    -1.2693     1.2437 N.2     
   7 C7             1.6716    -3.5403     0.5611 C.2     
   8 N8             2.9377    -3.1204     0.3690 N.am    
   9 N9             0.3659     1.6027     1.9810 N.2     
  10 O10            1.3820    -4.7061     0.3709 O.2     
  11 C11            3.9653    -4.0683    -0.0689 C.3     
  12 C12            3.9300    -4.1904    -1.5937 C.3     
  13 C13            5.3216    -3.5744     0.3641 C.2     
  14 C14            4.0650    -2.8009    -2.2198 C.3     
  15 C15           -2.6963    -1.6221     1.9517 C.3     
  16 C16           -3.4027    -2.8680     1.4020 C.3     
  17 N17           -2.6755    -4.0759     1.8172 N.3     
  18 C18           -1.3876    -4.1913     1.1096 C.3     
  19 C19            5.0873    -5.0752    -2.0614 C.3     
  20 C20            2.6024    -4.8171    -2.0245 C.3     
  21 O21            5.5048    -2.3900     0.5499 O.2     
  22 N22            6.3311    -4.4489     0.5451 N.am    
  23 C23            7.6159    -3.9852     1.0746 C.3     
  24 C24           -0.0135     2.8083     2.3301 C.2     
  25 C25           -1.3070     2.9440     2.6483 C.2     
  26 S26           -2.0860     1.3731     2.4693 S.3     
  27 C27           -3.4953    -5.2785     1.6179 C.3     
  28 C28           -4.8322    -2.9233     1.9445 C.3     
  29 H29            3.1687    -2.1906     0.5207 H       
  30 H30            3.7741    -5.0438     0.3782 H       
  31 H31            5.0108    -2.3544    -1.9129 H       
  32 H32            4.0398    -2.8879    -3.3061 H       
  33 H33            3.2405    -2.1706    -1.8866 H       
  34 H34           -2.8180    -1.5777     3.0340 H       
  35 H35           -3.1213    -0.7275     1.4963 H       
  36 H36           -3.4308    -2.8181     0.3136 H       
  37 H37           -1.5639    -4.4184     0.0582 H       
  38 H38           -0.7881    -4.9812     1.5622 H       
  39 H39            4.9710    -6.0757    -1.6448 H       
  40 H40            5.0841    -5.1322    -3.1499 H       
  41 H41            6.0311    -4.6480    -1.7227 H       
  42 H42            1.7780    -4.1868    -1.6912 H       
  43 H43            2.5772    -4.9041    -3.1107 H       
  44 H44            2.5063    -5.8070    -1.5784 H       
  45 H45            6.2068    -5.3853     0.3246 H       
  46 H46            8.0350    -3.2341     0.4051 H       
  47 H47            7.4656    -3.5486     2.0620 H       
  48 H48            8.3029    -4.8280     1.1508 H       
  49 H49            0.6747     3.6401     2.3595 H       
  50 H50           -1.7905     3.8591     2.9570 H       
  51 H51           -3.7537    -5.3713     0.5630 H       
  52 H52           -2.9333    -6.1577     1.9330 H       
  53 H53           -4.4072    -5.1988     2.2097 H       
  54 H54           -5.3740    -2.0305     1.6323 H       
  55 H55           -5.3349    -3.8083     1.5545 H       
  56 H56           -4.8061    -2.9703     3.0332 H       
@<TRIPOS>BOND
   1    1    2 1
   2    1    9 2
   3    1   26 1
   4    2    3 1
   5    2    6 2
   6    3    4 1
   7    3   15 1
   8    4    5 2
   9    4   18 1
  10    5    6 1
  11    5    7 1
  12    7    8 am
  13    7   10 2
  14    8   11 1
  15    8   29 1
  16    9   24 1
  17   11   12 1
  18   11   13 1
  19   11   30 1
  20   12   14 1
  21   12   19 1
  22   12   20 1
  23   13   21 2
  24   13   22 am
  25   14   31 1
  26   14   32 1
  27   14   33 1
  28   15   16 1
  29   15   34 1
  30   15   35 1
  31   16   17 1
  32   16   28 1
  33   16   36 1
  34   17   18 1
  35   17   27 1
  36   18   37 1
  37   18   38 1
  38   19   39 1
  39   19   40 1
  40   19   41 1
  41   20   42 1
  42   20   43 1
  43   20   44 1
  44   22   23 1
  45   22   45 1
  46   23   46 1
  47   23   47 1
  48   23   48 1
  49   24   25 2
  50   24   49 1
  51   25   26 1
  52   25   50 1
  53   27   51 1
  54   27   52 1
  55   27   53 1
  56   28   54 1
  57   28   55 1
  58   28   56 1

#	End of record

