#	Name: ASD01811561
#	Creating user name:	WinNT
#	Creation time:	15. 06. 2019 19:26

#	Modifying user name:	WinNT
#	Modification time:	15. 06. 2019 19:26

#	Program:	/corina/corina34_cracker 3.40 0067  02.08.2006

@<TRIPOS>MOLECULE
ASD01811561
  23   22    0    0    0
SMALL
NO_CHARGES


@<TRIPOS>ATOM
   1 C1             0.5495     1.0748    -0.0047 C.2     
   2 C2             0.3922    -0.2127    -0.1882 C.2     
   3 C3            -0.9495    -0.8513     0.0630 C.3     
   4 C4            -1.3976    -1.6064    -1.1900 C.3     
   5 C5            -2.6979    -2.3569    -0.8954 C.3     
   6 C6            -3.0794    -3.1896    -2.0921 C.2     
   7 C7            -3.2903    -4.4753    -1.9552 C.2     
   8 O8            -1.6143    -0.6775    -2.2540 O.3     
   9 C9            -1.0468    -1.0804    -3.5020 C.3     
  10 H10            1.5111     1.5324    -0.1847 H       
  11 H11           -0.2835     1.6793     0.3224 H       
  12 H12            1.2241    -0.8166    -0.5196 H       
  13 H13           -0.8699    -1.5476     0.8978 H       
  14 H14           -1.6803    -0.0789     0.3025 H       
  15 H15           -0.6251    -2.3183    -1.4808 H       
  16 H16           -2.5550    -3.0062    -0.0317 H       
  17 H17           -3.4912    -1.6400    -0.6838 H       
  18 H18           -3.1790    -2.7264    -3.0627 H       
  19 H19           -3.5637    -5.0720    -2.8128 H       
  20 H20           -3.1907    -4.9384    -0.9846 H       
  21 H21           -1.2125    -0.3005    -4.2452 H       
  22 H22            0.0239    -1.2431    -3.3786 H       
  23 H23           -1.5188    -2.0051    -3.8341 H       
@<TRIPOS>BOND
   1    1    2 2
   2    1   10 1
   3    1   11 1
   4    2    3 1
   5    2   12 1
   6    3    4 1
   7    3   13 1
   8    3   14 1
   9    4    5 1
  10    4    8 1
  11    4   15 1
  12    5    6 1
  13    5   16 1
  14    5   17 1
  15    6    7 2
  16    6   18 1
  17    7   19 1
  18    7   20 1
  19    8    9 1
  20    9   21 1
  21    9   22 1
  22    9   23 1

#	End of record

