#	Name: ASD04590286
#	Creating user name:	WinNT
#	Creation time:	15. 06. 2019 20:50

#	Modifying user name:	WinNT
#	Modification time:	15. 06. 2019 20:50

#	Program:	/corina/corina34_cracker 3.40 0067  02.08.2006

@<TRIPOS>MOLECULE
ASD04590286
  53   56    0    0    0
SMALL
NO_CHARGES


@<TRIPOS>ATOM
   1 C1            -0.0167     1.3832     0.0096 C.ar    
   2 C2             0.0021    -0.0041     0.0020 C.ar    
   3 C3             1.1969    -0.6870    -0.0126 C.ar    
   4 C4             2.4020     0.0223    -0.0203 C.ar    
   5 C5             2.3769     1.4283    -0.0129 C.ar    
   6 C6             1.1624     2.0986     0.0022 C.ar    
   7 N7             3.7040    -0.3552    -0.0343 N.2     
   8 C8             4.4709     0.7083    -0.0361 C.2     
   9 N9             3.6969     1.8375    -0.0232 N.pl3   
  10 C10            5.9482     0.6906    -0.0500 C.2     
  11 C11            6.7657    -0.4631    -0.0639 C.2     
  12 C12            8.0579    -0.0540    -0.0737 C.2     
  13 N13            8.0646     1.3050    -0.0664 N.pl3   
  14 N14            6.7361     1.7480    -0.0573 N.2     
  15 N15            6.3188    -1.7944    -0.0671 N.am    
  16 C16            7.2108    -2.8046    -0.0809 C.2     
  17 C17            6.7414    -4.2032    -0.0842 C.ar    
  18 O18            8.4027    -2.5633    -0.0907 O.2     
  19 C19            6.0605    -6.1719    -1.2888 C.ar    
  20 C20            5.8580    -6.8319    -0.0904 C.ar    
  21 C21            6.0884    -6.1869     1.1112 C.ar    
  22 C22            6.5288    -4.8768     1.1235 C.ar    
  23 F23            6.7537    -4.2487     2.2983 F       
  24 C24            6.5007    -4.8617    -1.2949 C.ar    
  25 F25            6.6975    -4.2186    -2.4667 F       
  26 C26            1.2064    -2.1939    -0.0198 C.3     
  27 N27            1.4630    -2.6884     1.3395 N.3     
  28 C28            1.4794    -4.1570     1.3710 C.3     
  29 C29            2.5814    -4.6747     0.4444 C.3     
  30 C30            1.7488    -4.6335     2.7998 C.3     
  31 C31            0.1252    -4.6924     0.9016 C.3     
  32 H32           -0.9614     1.9066     0.0169 H       
  33 H33           -0.9283    -0.5525     0.0079 H       
  34 H34            1.1403     3.1784     0.0075 H       
  35 H35            4.0156     2.7537    -0.0215 H       
  36 H36            8.9276    -0.6942    -0.0850 H       
  37 H37            8.8529     1.8702    -0.0703 H       
  38 H38            5.3681    -1.9869    -0.0593 H       
  39 H39            5.8782    -6.6830    -2.2225 H       
  40 H40            5.5136    -7.8555    -0.0928 H       
  41 H41            5.9274    -6.7096     2.0425 H       
  42 H42            0.2397    -2.5617    -0.3638 H       
  43 H43            1.9896    -2.5491    -0.6895 H       
  44 H44            2.3232    -2.3092     1.7059 H       
  45 H45            3.5462    -4.2933     0.7788 H       
  46 H46            2.5936    -5.7644     0.4678 H       
  47 H47            2.3895    -4.3353    -0.5734 H       
  48 H48            0.9637    -4.2647     3.4598 H       
  49 H49            1.7610    -5.7232     2.8231 H       
  50 H50            2.7136    -4.2521     3.1341 H       
  51 H51           -0.0667    -4.3530    -0.1162 H       
  52 H52            0.1374    -5.7821     0.9250 H       
  53 H53           -0.6599    -4.3236     1.5617 H       
@<TRIPOS>BOND
   1    1    2 ar
   2    1    6 ar
   3    1   32 1
   4    2    3 ar
   5    2   33 1
   6    3    4 ar
   7    3   26 1
   8    4    5 ar
   9    4    7 1
  10    5    6 ar
  11    5    9 1
  12    6   34 1
  13    7    8 2
  14    8    9 1
  15    8   10 1
  16    9   35 1
  17   10   11 1
  18   10   14 2
  19   11   12 2
  20   11   15 1
  21   12   13 1
  22   12   36 1
  23   13   14 1
  24   13   37 1
  25   15   16 am
  26   15   38 1
  27   16   17 1
  28   16   18 2
  29   17   22 ar
  30   17   24 ar
  31   19   20 ar
  32   19   24 ar
  33   19   39 1
  34   20   21 ar
  35   20   40 1
  36   21   22 ar
  37   21   41 1
  38   22   23 1
  39   24   25 1
  40   26   27 1
  41   26   42 1
  42   26   43 1
  43   27   28 1
  44   27   44 1
  45   28   29 1
  46   28   30 1
  47   28   31 1
  48   29   45 1
  49   29   46 1
  50   29   47 1
  51   30   48 1
  52   30   49 1
  53   30   50 1
  54   31   51 1
  55   31   52 1
  56   31   53 1

#	End of record

