#	Name: ASD07930455
#	Creating user name:	WinNT
#	Creation time:	15. 06. 2019 21:12

#	Modifying user name:	WinNT
#	Modification time:	15. 06. 2019 21:12

#	Program:	/corina/corina34_cracker 3.40 0067  02.08.2006

@<TRIPOS>MOLECULE
ASD07930455
  48   50    0    0    0
SMALL
NO_CHARGES


@<TRIPOS>ATOM
   1 N1             0.0006     1.2712     0.0037 N.2     
   2 N2            -1.1611    -0.7565     0.0076 N.pl3   
   3 C3            -1.3888    -1.7914    -1.0064 C.3     
   4 C4            -0.2711    -2.8398    -0.9193 C.3     
   5 S5             1.3268    -1.9883    -1.1092 S.o2    
   6 N6             1.2083    -0.7373    -0.0149 N.am    
   7 C7             0.0133    -0.0321    -0.0009 C.2     
   8 C8            -1.3840    -1.1539    -2.3972 C.3     
   9 C9            -2.7200    -2.4534    -0.7598 C.ar    
  10 C10           -3.4610    -2.1182     0.3561 C.ar    
  11 C11           -4.6878    -2.7286     0.5829 C.ar    
  12 C12           -5.1665    -3.6749    -0.3135 C.ar    
  13 C13           -4.4221    -4.0071    -1.4286 C.ar    
  14 C14           -3.2019    -3.3933    -1.6557 C.ar    
  15 N15           -5.4402    -2.3909     1.7134 N.am    
  16 C16           -6.7860    -2.3674     1.6449 C.2     
  17 O17           -7.3434    -2.5440     0.5795 O.2     
  18 O18            2.3891    -2.7939    -0.6177 O.2     
  19 O19            1.4101    -1.3489    -2.3755 O.2     
  20 F20           -2.4756    -3.7194    -2.7471 F       
  21 C21           -7.5858    -2.1265     2.8682 C.ar    
  22 N22           -6.9714    -1.9344     4.0290 N.ar    
  23 C23           -7.6441    -1.7169     5.1380 C.ar    
  24 C24           -9.0292    -1.6807     5.1347 C.ar    
  25 C25           -9.7113    -1.8765     3.9438 C.ar    
  26 C26           -8.9766    -2.0978     2.7898 C.ar    
  27 C27           -9.7868    -1.4315     6.4133 C.3     
  28 F28           -8.8816    -1.2667     7.4672 F       
  29 F29          -10.5613    -0.2742     6.2785 F       
  30 F30          -10.6210    -2.5222     6.6813 F       
  31 C31            2.3111    -0.3991     0.8883 C.3     
  32 H32            2.9602     0.3346     0.4102 H       
  33 H33            1.9095     0.0182     1.8117 H       
  34 H34            2.8840    -1.2982     1.1148 H       
  35 H35            0.8358     1.7644    -0.0028 H       
  36 H36           -1.8367    -0.5788     0.6806 H       
  37 H37           -0.3091    -3.3379     0.0495 H       
  38 H38           -0.3931    -3.5741    -1.7156 H       
  39 H39           -0.4200    -0.6772    -2.5751 H       
  40 H40           -1.5532    -1.9235    -3.1503 H       
  41 H41           -2.1753    -0.4067    -2.4571 H       
  42 H42           -3.0867    -1.3823     1.0523 H       
  43 H43           -6.1201    -4.1509    -0.1389 H       
  44 H44           -4.7938    -4.7433    -2.1259 H       
  45 H45           -4.9931    -2.1736     2.5463 H       
  46 H46           -7.1096    -1.5648     6.0640 H       
  47 H47          -10.7907    -1.8529     3.9152 H       
  48 H48           -9.4751    -2.2537     1.8446 H       
@<TRIPOS>BOND
   1    1    7 2
   2    1   35 1
   3    2    3 1
   4    2    7 1
   5    2   36 1
   6    3    4 1
   7    3    8 1
   8    3    9 1
   9    4    5 1
  10    4   37 1
  11    4   38 1
  12    5    6 am
  13    5   18 2
  14    5   19 2
  15    6    7 1
  16    6   31 1
  17    8   39 1
  18    8   40 1
  19    8   41 1
  20    9   10 ar
  21    9   14 ar
  22   10   11 ar
  23   10   42 1
  24   11   12 ar
  25   11   15 1
  26   12   13 ar
  27   12   43 1
  28   13   14 ar
  29   13   44 1
  30   14   20 1
  31   15   16 am
  32   15   45 1
  33   16   17 2
  34   16   21 1
  35   21   22 ar
  36   21   26 ar
  37   22   23 ar
  38   23   24 ar
  39   23   46 1
  40   24   25 ar
  41   24   27 1
  42   25   26 ar
  43   25   47 1
  44   26   48 1
  45   27   28 1
  46   27   29 1
  47   27   30 1
  48   31   32 1
  49   31   33 1
  50   31   34 1

#	End of record

