#	Name: ASD02198348
#	Creating user name:	WinNT
#	Creation time:	15. 06. 2019 20:19

#	Modifying user name:	WinNT
#	Modification time:	15. 06. 2019 20:19

#	Program:	/corina/corina34_cracker 3.40 0067  02.08.2006

@<TRIPOS>MOLECULE
ASD02198348
  48   51    0    0    0
SMALL
NO_CHARGES


@<TRIPOS>ATOM
   1 C1            -0.5797     1.4206    -0.6014 C.2     
   2 C2            -0.6527     0.0434    -0.6931 C.2     
   3 S3             1.0714     1.8963    -0.9906 S.3     
   4 C4             1.5030     0.2611    -1.2335 C.2     
   5 N5             0.4826    -0.5219    -1.0323 N.2     
   6 N6            -1.8140    -0.6727    -0.4495 N.pl3   
   7 C7            -1.6364     2.2879    -0.2638 C.2     
   8 C8            -1.3758     3.7301    -0.0701 C.ar    
   9 O9            -2.7666     1.8493    -0.1311 O.2     
  10 N10            2.7596    -0.1701    -1.5934 N.pl3   
  11 C11           -2.3816     4.6641    -0.3284 C.ar    
  12 C12           -0.1249     4.1616     0.3770 C.ar    
  13 C13            0.1143     5.5062     0.5562 C.ar    
  14 C14           -0.8874     6.4331     0.2931 C.ar    
  15 C15           -2.1351     6.0071    -0.1469 C.ar    
  16 C16            3.0191    -1.6004    -1.7753 C.3     
  17 C17            4.2071    -1.8031    -2.7321 C.3     
  18 C18            5.2907    -2.5584    -1.9352 C.3     
  19 C19            4.5035    -3.2804    -0.8136 C.3     
  20 C20            3.4223    -2.2396    -0.4305 C.3     
  21 O21           -0.6482     7.7573     0.4713 O.3     
  22 C22            0.0592     8.4123    -0.4862 C.ar    
  23 C23            0.5399     7.7218    -1.5897 C.ar    
  24 C24            1.2589     8.3900    -2.5616 C.ar    
  25 C25            1.4997     9.7458    -2.4357 C.ar    
  26 C26            1.0221    10.4361    -1.3370 C.ar    
  27 C27            0.2974     9.7739    -0.3652 C.ar    
  28 H28           -2.6279    -0.2070    -0.2012 H       
  29 H29           -1.8129    -1.6395    -0.5274 H       
  30 H30            3.4734     0.4731    -1.7265 H       
  31 H31           -3.3513     4.3338    -0.6704 H       
  32 H32            0.6537     3.4419     0.5823 H       
  33 H33            1.0813     5.8406     0.9019 H       
  34 H34           -2.9110     6.7302    -0.3507 H       
  35 H35            2.1316    -2.0930    -2.1725 H       
  36 H36            3.8963    -2.3948    -3.5931 H       
  37 H37            4.5906    -0.8373    -3.0610 H       
  38 H38            5.7976    -3.2829    -2.5726 H       
  39 H39            6.0078    -1.8576    -1.5076 H       
  40 H40            4.0438    -4.1939    -1.1908 H       
  41 H41            5.1513    -3.4952     0.0363 H       
  42 H42            3.8376    -1.4873     0.2402 H       
  43 H43            2.5656    -2.7314     0.0302 H       
  44 H44            0.3524     6.6628    -1.6883 H       
  45 H45            1.6336     7.8530    -3.4205 H       
  46 H46            2.0620    10.2663    -3.1968 H       
  47 H47            1.2122    11.4949    -1.2407 H       
  48 H48           -0.0757    10.3137     0.4927 H       
@<TRIPOS>BOND
   1    1    2 2
   2    1    3 1
   3    1    7 1
   4    2    6 1
   5    2    5 1
   6    3    4 1
   7    4    5 2
   8    4   10 1
   9    6   28 1
  10    6   29 1
  11    7    8 1
  12    7    9 2
  13    8   11 ar
  14    8   12 ar
  15   10   16 1
  16   10   30 1
  17   11   15 ar
  18   11   31 1
  19   12   13 ar
  20   12   32 1
  21   13   14 ar
  22   13   33 1
  23   14   15 ar
  24   14   21 1
  25   15   34 1
  26   16   17 1
  27   16   20 1
  28   16   35 1
  29   17   18 1
  30   17   36 1
  31   17   37 1
  32   18   19 1
  33   18   38 1
  34   18   39 1
  35   19   20 1
  36   19   40 1
  37   19   41 1
  38   20   42 1
  39   20   43 1
  40   21   22 1
  41   22   23 ar
  42   22   27 ar
  43   23   24 ar
  44   23   44 1
  45   24   25 ar
  46   24   45 1
  47   25   26 ar
  48   25   46 1
  49   26   27 ar
  50   26   47 1
  51   27   48 1

#	End of record

