#	Name: ASD01410410
#	Creating user name:	WinNT
#	Creation time:	15. 06. 2019 19:17

#	Modifying user name:	WinNT
#	Modification time:	15. 06. 2019 19:17

#	Program:	/corina/corina34_cracker 3.40 0067  02.08.2006

@<TRIPOS>MOLECULE
ASD01410410
  36   38    0    0    0
SMALL
NO_CHARGES


@<TRIPOS>ATOM
   1 S1            -0.0147     1.7572    -0.0963 S.3     
   2 C2            -0.0019     0.0035     0.1589 C.2     
   3 N3             1.2728    -0.3521     0.3548 N.am    
   4 C4             2.2189     0.5717     0.3283 C.2     
   5 C5             1.7424     1.9384     0.0765 C.2     
   6 S6            -1.3615    -1.0369     0.1555 S.2     
   7 O7             3.3948     0.3096     0.4998 O.2     
   8 N8             1.6032    -1.6937     0.5869 N.am    
   9 S9             1.9587    -2.6911    -0.6864 S.o2    
  10 O10            2.3938    -3.9211    -0.1233 O.2     
  11 O11            0.8662    -2.5933    -1.5899 O.2     
  12 C12            3.3528    -2.0024    -1.5150 C.ar    
  13 C13            4.6314    -2.3682    -1.1376 C.ar    
  14 C14            5.7251    -1.8278    -1.7876 C.ar    
  15 C15            5.5404    -0.9220    -2.8154 C.ar    
  16 C16            4.2618    -0.5569    -3.1934 C.ar    
  17 C17            3.1680    -1.1006    -2.5462 C.ar    
  18 C18            2.4761     3.0762    -0.0055 C.2     
  19 C19           -0.1482     5.7446     0.2253 C.ar    
  20 C20            0.5356     6.8367    -0.2863 C.ar    
  21 C21            0.4762     4.5187     0.3195 C.ar    
  22 C22            1.8032     4.3792    -0.1029 C.ar    
  23 C23            2.4861     5.4865    -0.6181 C.ar    
  24 C24            1.8487     6.7057    -0.7061 C.ar    
  25 Br25          -0.3295     8.5135    -0.4122 Br      
  26 Br26          -1.9385     5.9383     0.8024 Br      
  27 H27            1.6237    -2.0383     1.4934 H       
  28 H28            4.7757    -3.0759    -0.3346 H       
  29 H29            6.7240    -2.1131    -1.4923 H       
  30 H30            6.3949    -0.4993    -3.3228 H       
  31 H31            4.1175     0.1510    -3.9961 H       
  32 H32            2.1690    -0.8181    -2.8440 H       
  33 H33            3.5549     3.0248     0.0009 H       
  34 H34           -0.0573     3.6686     0.7185 H       
  35 H35            3.5102     5.3862    -0.9463 H       
  36 H36            2.3747     7.5610    -1.1039 H       
@<TRIPOS>BOND
   1    1    2 1
   2    1    5 1
   3    2    3 am
   4    2    6 2
   5    3    4 am
   6    3    8 1
   7    4    5 1
   8    4    7 2
   9    5   18 2
  10    8    9 am
  11    8   27 1
  12    9   10 2
  13    9   11 2
  14    9   12 1
  15   12   13 ar
  16   12   17 ar
  17   13   14 ar
  18   13   28 1
  19   14   15 ar
  20   14   29 1
  21   15   16 ar
  22   15   30 1
  23   16   17 ar
  24   16   31 1
  25   17   32 1
  26   18   22 1
  27   18   33 1
  28   19   20 ar
  29   19   21 ar
  30   19   26 1
  31   20   24 ar
  32   20   25 1
  33   21   22 ar
  34   21   34 1
  35   22   23 ar
  36   23   24 ar
  37   23   35 1
  38   24   36 1

#	End of record

