#	Name: ASD01940034
#	Creating user name:	WinNT
#	Creation time:	15. 06. 2019 20:11

#	Modifying user name:	WinNT
#	Modification time:	15. 06. 2019 20:11

#	Program:	/corina/corina34_cracker 3.40 0067  02.08.2006

@<TRIPOS>MOLECULE
ASD01940034
  47   49    0    0    0
SMALL
NO_CHARGES


@<TRIPOS>ATOM
   1 C1             0.2718     1.3676     0.1879 C.ar    
   2 C2             0.2616     0.1561    -0.4912 C.ar    
   3 C3            -0.8681    -0.6374    -0.4699 C.ar    
   4 C4            -1.9930    -0.2248     0.2297 C.ar    
   5 C5            -1.9838     0.9856     0.9081 C.ar    
   6 C6            -0.8528     1.7775     0.8924 C.ar    
   7 N7             1.4167     2.1722     0.1672 N.pl3   
   8 C8             1.2936     3.5500     0.1573 C.2     
   9 C9             2.3125     4.4861     0.2634 C.2     
  10 C10            1.8643     5.8073     0.2201 C.2     
  11 N11            0.5852     5.9886     0.0895 N.2     
  12 S12           -0.1538     4.4662     0.0034 S.3     
  13 O13            2.7254     6.8538     0.3106 O.3     
  14 C14            3.7309     4.1206     0.4082 C.2     
  15 N15            4.2736     3.9473     1.6644 N.pl3   
  16 N16            4.4761     3.9602    -0.6534 N.2     
  17 C17            5.6854     3.5835     1.8086 C.3     
  18 C18            6.5444     4.8491     1.7724 C.3     
  19 C19            5.8930     2.8642     3.1429 C.3     
  20 O20            5.6235     3.7667     4.2176 O.3     
  21 O21           -3.1051    -1.0067     0.2503 O.3     
  22 C22           -4.2195    -0.5480    -0.3789 C.ar    
  23 C23           -5.4139    -1.2479    -0.2751 C.ar    
  24 C24           -6.5461    -0.7797    -0.9157 C.ar    
  25 C25           -6.4886     0.3861    -1.6601 C.ar    
  26 C26           -4.1658     0.6230    -1.1206 C.ar    
  27 C27           -5.2975     1.0847    -1.7646 C.ar    
  28 Cl28          -5.4857    -2.7101     0.6579 Cl      
  29 F29           -7.5956     0.8426    -2.2856 F       
  30 H30            1.1370    -0.1650    -1.0361 H       
  31 H31           -0.8763    -1.5793    -0.9982 H       
  32 H32           -2.8599     1.3062     1.4521 H       
  33 H33           -0.8458     2.7196     1.4204 H       
  34 H34            2.2964     1.7638     0.1598 H       
  35 H35            3.0650     7.1587    -0.5419 H       
  36 H36            3.7205     4.0664     2.4523 H       
  37 H37            5.4109     3.7193    -0.5579 H       
  38 H38            5.9759     2.9237     0.9911 H       
  39 H39            6.3966     5.3616     0.8219 H       
  40 H40            6.2539     5.5089     2.5900 H       
  41 H41            7.5948     4.5784     1.8797 H       
  42 H42            5.2160     2.0122     3.2055 H       
  43 H43            6.9234     2.5153     3.2112 H       
  44 H44            5.7353     3.3773     5.0956 H       
  45 H45           -7.4755    -1.3238    -0.8357 H       
  46 H46           -3.2384     1.1709    -1.1986 H       
  47 H47           -5.2544     1.9938    -2.3460 H       
@<TRIPOS>BOND
   1    1    2 ar
   2    1    7 1
   3    1    6 ar
   4    2    3 ar
   5    2   30 1
   6    3    4 ar
   7    3   31 1
   8    4    5 ar
   9    4   21 1
  10    5    6 ar
  11    5   32 1
  12    6   33 1
  13    7    8 1
  14    7   34 1
  15    8    9 2
  16    8   12 1
  17    9   10 1
  18    9   14 1
  19   10   11 2
  20   10   13 1
  21   11   12 1
  22   13   35 1
  23   14   15 1
  24   14   16 2
  25   15   17 1
  26   15   36 1
  27   16   37 1
  28   17   18 1
  29   17   19 1
  30   17   38 1
  31   18   39 1
  32   18   40 1
  33   18   41 1
  34   19   20 1
  35   19   42 1
  36   19   43 1
  37   20   44 1
  38   21   22 1
  39   22   23 ar
  40   22   26 ar
  41   23   24 ar
  42   23   28 1
  43   24   25 ar
  44   24   45 1
  45   25   27 ar
  46   25   29 1
  47   26   27 ar
  48   26   46 1
  49   27   47 1

#	End of record

