#	Name: ASD00111124
#	Creating user name:	WinNT
#	Creation time:	15. 06. 2019 18:31

#	Modifying user name:	WinNT
#	Modification time:	15. 06. 2019 18:31

#	Program:	/corina/corina34_cracker 3.40 0067  02.08.2006

@<TRIPOS>MOLECULE
ASD00111124
  28   29    0    0    0
SMALL
NO_CHARGES


@<TRIPOS>ATOM
   1 N1            -0.0176     1.4493     0.0100 N.am    
   2 C2             0.0021    -0.0041     0.0020 C.3     
   3 C3             0.6851    -0.4730    -1.2722 C.2     
   4 C4             2.1526    -0.3693    -1.3327 C.ar    
   5 C5             2.7682     0.8832    -1.3354 C.ar    
   6 C6             1.9142     2.1356    -1.3386 C.3     
   7 C7             1.1963     2.2648     0.0028 C.3     
   8 C8             4.1411     0.9819    -1.3517 C.ar    
   9 C9             4.9149    -0.1666    -1.3907 C.ar    
  10 C10            4.3139    -1.4141    -1.4126 C.ar    
  11 C11            2.9379    -1.5251    -1.3822 C.ar    
  12 O12            0.0462    -0.9158    -2.2028 O.2     
  13 Cl13           5.2950    -2.8448    -1.4787 Cl      
  14 C14           -1.2113     2.0751     0.0190 C.2     
  15 O15           -1.2607     3.2869     0.0258 O.2     
  16 C16           -2.4846     1.2690     0.0205 C.3     
  17 F17           -3.5841     2.1341     0.0304 F       
  18 F18           -2.5312     0.4686    -1.1259 F       
  19 F19           -2.5206     0.4562     1.1586 F       
  20 H20            0.5549    -0.3673     0.8684 H       
  21 H21           -1.0192    -0.3840     0.0309 H       
  22 H22            2.5486     3.0077    -1.4967 H       
  23 H23            1.1781     2.0714    -2.1399 H       
  24 H24            0.9307     3.3085     0.1708 H       
  25 H25            1.8598     1.9311     0.8006 H       
  26 H26            4.6141     1.9527    -1.3346 H       
  27 H27            5.9920    -0.0886    -1.4043 H       
  28 H28            2.4710    -2.4989    -1.3965 H       
@<TRIPOS>BOND
   1    1    2 1
   2    1    7 1
   3    1   14 am
   4    2    3 1
   5    2   20 1
   6    2   21 1
   7    3    4 1
   8    3   12 2
   9    4    5 ar
  10    4   11 ar
  11    5    6 1
  12    5    8 ar
  13    6    7 1
  14    6   22 1
  15    6   23 1
  16    7   24 1
  17    7   25 1
  18    8    9 ar
  19    8   26 1
  20    9   10 ar
  21    9   27 1
  22   10   11 ar
  23   10   13 1
  24   11   28 1
  25   14   15 2
  26   14   16 1
  27   16   17 1
  28   16   18 1
  29   16   19 1

#	End of record

