#	Name: ASD02030223
#	Creating user name:	WinNT
#	Creation time:	15. 06. 2019 20:14

#	Modifying user name:	WinNT
#	Modification time:	15. 06. 2019 20:14

#	Program:	/corina/corina34_cracker 3.40 0067  02.08.2006

@<TRIPOS>MOLECULE
ASD02030223
  58   61    0    0    0
SMALL
NO_CHARGES


@<TRIPOS>ATOM
   1 N1            -0.1179     1.6990    -0.1938 N.am    
   2 C2            -0.2072     0.2351    -0.2887 C.3     
   3 C3            -1.0338    -0.2831     0.8947 C.3     
   4 N4            -2.2756     0.4984     0.9782 N.am    
   5 C5            -2.1863     1.9622     1.0731 C.3     
   6 C6            -1.3596     2.4801    -0.1047 C.3     
   7 C7             1.0815     2.3137    -0.1831 C.2     
   8 C8             2.3224     1.5123    -0.1261 C.2     
   9 N9             3.5416     1.9835     0.0232 N.2     
  10 N10            2.4034     0.1718    -0.2119 N.2     
  11 C11            3.6689    -0.1482    -0.1184 C.2     
  12 N12            4.3688     0.9955     0.0283 N.pl3   
  13 O13            1.1428     3.5272    -0.2202 O.2     
  14 C14           -3.4750    -0.1164     0.9675 C.2     
  15 C15           -3.5489    -1.5959     0.9458 C.ar    
  16 O16           -4.4958     0.5429     0.9756 O.2     
  17 C17           -1.0244     3.9570     0.1132 C.3     
  18 C18           -2.1546     2.3163    -1.4016 C.3     
  19 C19            5.7603     1.0928     0.1631 C.ar    
  20 C20            6.3596     2.3365     0.3078 C.ar    
  21 C21            7.7326     2.4290     0.4410 C.ar    
  22 C22            8.5085     1.2833     0.4297 C.ar    
  23 C23            7.9133     0.0435     0.2856 C.ar    
  24 C24            6.5418    -0.0553     0.1579 C.ar    
  25 C25           -4.7467    -2.2214     0.6130 C.ar    
  26 Cl26           8.4837     3.9836     0.6221 Cl      
  27 N27           -2.4698    -2.3128     1.2388 N.ar    
  28 C28           -2.4940    -3.6319     1.2304 C.ar    
  29 C29           -3.6610    -4.3209     0.9110 C.ar    
  30 C30           -4.8040    -3.6075     0.5956 C.ar    
  31 O31           -1.3685    -4.3250     1.5361 O.3     
  32 C32           -0.2031    -3.5619     1.8547 C.3     
  33 C33           -6.0844    -4.3207     0.2450 C.3     
  34 H34           -0.6938    -0.0418    -1.2239 H       
  35 H35            0.7934    -0.1956    -0.2525 H       
  36 H36           -1.2733    -1.3353     0.7408 H       
  37 H37           -0.4652    -0.1660     1.8173 H       
  38 H38           -3.1869     2.3929     1.0369 H       
  39 H39           -1.6997     2.2392     2.0083 H       
  40 H40            4.0784    -1.1471    -0.1498 H       
  41 H41           -0.2808     4.0478     0.9049 H       
  42 H42           -0.6262     4.3791    -0.8095 H       
  43 H43           -1.9275     4.4961     0.3993 H       
  44 H44           -3.0825     2.8841    -1.3331 H       
  45 H45           -1.5634     2.6860    -2.2394 H       
  46 H46           -2.3844     1.2621    -1.5562 H       
  47 H47            5.7541     3.2307     0.3160 H       
  48 H48            9.5810     1.3576     0.5331 H       
  49 H49            8.5214    -0.8490     0.2768 H       
  50 H50            6.0779    -1.0241     0.0458 H       
  51 H51           -5.6209    -1.6351     0.3717 H       
  52 H52           -3.6731    -5.4008     0.9059 H       
  53 H53            0.0623    -2.9323     1.0055 H       
  54 H54           -0.4056    -2.9346     2.7228 H       
  55 H55            0.6230    -4.2368     2.0789 H       
  56 H56           -6.6654    -4.4909     1.1514 H       
  57 H57           -6.6627    -3.7096    -0.4480 H       
  58 H58           -5.8512    -5.2776    -0.2221 H       
@<TRIPOS>BOND
   1    1    2 1
   2    1    7 am
   3    1    6 1
   4    2    3 1
   5    2   34 1
   6    2   35 1
   7    3    4 1
   8    3   36 1
   9    3   37 1
  10    4    5 1
  11    4   14 am
  12    5    6 1
  13    5   38 1
  14    5   39 1
  15    6   17 1
  16    6   18 1
  17    7    8 1
  18    7   13 2
  19    8    9 2
  20    8   10 1
  21    9   12 1
  22   10   11 2
  23   11   12 1
  24   11   40 1
  25   12   19 1
  26   14   15 1
  27   14   16 2
  28   15   27 ar
  29   15   25 ar
  30   17   41 1
  31   17   42 1
  32   17   43 1
  33   18   44 1
  34   18   45 1
  35   18   46 1
  36   19   20 ar
  37   19   24 ar
  38   20   21 ar
  39   20   47 1
  40   21   22 ar
  41   21   26 1
  42   22   23 ar
  43   22   48 1
  44   23   24 ar
  45   23   49 1
  46   24   50 1
  47   25   30 ar
  48   25   51 1
  49   27   28 ar
  50   28   29 ar
  51   28   31 1
  52   29   30 ar
  53   29   52 1
  54   30   33 1
  55   31   32 1
  56   32   53 1
  57   32   54 1
  58   32   55 1
  59   33   56 1
  60   33   57 1
  61   33   58 1

#	End of record

