#	Name: ASD03430698
#	Creating user name:	WinNT
#	Creation time:	15. 06. 2019 20:41

#	Modifying user name:	WinNT
#	Modification time:	15. 06. 2019 20:41

#	Program:	/corina/corina34_cracker 3.40 0067  02.08.2006

@<TRIPOS>MOLECULE
ASD03430698
  53   59    0    0    0
SMALL
NO_CHARGES


@<TRIPOS>ATOM
   1 C1            -0.0166     1.3732     0.0096 C.ar    
   2 C2             0.0021    -0.0041     0.0020 C.ar    
   3 C3             1.2045    -0.6788    -0.0046 C.ar    
   4 C4             2.4070     0.0233     0.0042 C.ar    
   5 C5             2.3791     1.4127     0.0027 C.ar    
   6 C6             1.1696     2.0973     0.0022 C.ar    
   7 O7             3.4730    -0.8265     0.0260 O.3     
   8 C8             1.5601    -2.1408    -0.0314 C.3     
   9 C9             3.0488    -2.1337    -0.4054 C.3     
  10 C10            0.4358    -3.8550     1.0265 C.ar    
  11 C11            1.3182    -2.8103     1.2891 C.ar    
  12 C12            0.7382    -2.9098    -1.0251 C.2     
  13 N13            0.1161    -3.8865    -0.3352 N.am    
  14 O14            0.6508    -2.6942    -2.2155 O.2     
  15 C15            1.7764    -2.5829     2.5679 C.ar    
  16 C16            1.3611    -3.3966     3.6122 C.ar    
  17 C17            0.4785    -4.4410     3.3629 C.ar    
  18 C18            0.0197    -4.6687     2.0759 C.ar    
  19 O19            1.8289    -3.1623     4.8691 O.3     
  20 C20            1.1050    -3.7641     5.9479 C.3     
  21 C21            0.8246    -5.2275     5.5804 C.3     
  22 O22            0.0533    -5.2472     4.3745 O.3     
  23 C23           -1.1521     2.3776     0.0357 C.3     
  24 C24           -0.4180     3.6799     0.4340 C.3     
  25 O25            0.9261     3.4374    -0.0150 O.3     
  26 C26           -0.7892    -4.8665    -0.9405 C.3     
  27 C27           -2.1987    -4.3343    -0.9101 C.2     
  28 O28           -3.0862    -4.5175     0.0812 O.3     
  29 C29           -4.2387    -3.9023    -0.2303 C.2     
  30 C30           -4.0963    -3.3163    -1.4326 C.2     
  31 C31           -2.7795    -3.5902    -1.8684 C.2     
  32 C32           -5.4810    -3.8740     0.6223 C.3     
  33 F33           -6.2936    -4.9659     0.2989 F       
  34 F34           -5.1215    -3.9439     1.9726 F       
  35 F35           -6.1810    -2.6858     0.3871 F       
  36 H36           -0.9262    -0.5561     0.0016 H       
  37 H37            3.3066     1.9660     0.0024 H       
  38 H38            3.1780    -2.2469    -1.4818 H       
  39 H39            3.5871    -2.9129     0.1341 H       
  40 H40            2.4609    -1.7695     2.7582 H       
  41 H41           -0.6647    -5.4822     1.8859 H       
  42 H42            1.7010    -3.7217     6.8595 H       
  43 H43            0.1635    -3.2360     6.0987 H       
  44 H44            1.7660    -5.7539     5.4232 H       
  45 H45            0.2643    -5.7072     6.3829 H       
  46 H46           -1.6097     2.4739    -0.9488 H       
  47 H47           -1.8959     2.1052     0.7845 H       
  48 H48           -0.8482     4.5387    -0.0811 H       
  49 H49           -0.4443     3.8231     1.5142 H       
  50 H50           -0.4912    -5.0469    -1.9733 H       
  51 H51           -0.7411    -5.8002    -0.3801 H       
  52 H52           -4.8433    -2.7433    -1.9619 H       
  53 H53           -2.3286    -3.2692    -2.7958 H       
@<TRIPOS>BOND
   1    1    2 ar
   2    1    6 ar
   3    1   23 1
   4    2    3 ar
   5    2   36 1
   6    3    4 ar
   7    3    8 1
   8    4    5 ar
   9    4    7 1
  10    5    6 ar
  11    5   37 1
  12    6   25 1
  13    7    9 1
  14    8    9 1
  15    8   11 1
  16    8   12 1
  17    9   38 1
  18    9   39 1
  19   10   11 ar
  20   10   13 1
  21   10   18 ar
  22   11   15 ar
  23   12   13 am
  24   12   14 2
  25   13   26 1
  26   15   16 ar
  27   15   40 1
  28   16   17 ar
  29   16   19 1
  30   17   18 ar
  31   17   22 1
  32   18   41 1
  33   19   20 1
  34   20   21 1
  35   20   42 1
  36   20   43 1
  37   21   22 1
  38   21   44 1
  39   21   45 1
  40   23   24 1
  41   23   46 1
  42   23   47 1
  43   24   25 1
  44   24   48 1
  45   24   49 1
  46   26   27 1
  47   26   50 1
  48   26   51 1
  49   27   28 1
  50   27   31 2
  51   28   29 1
  52   29   30 2
  53   29   32 1
  54   30   31 1
  55   30   52 1
  56   31   53 1
  57   32   33 1
  58   32   34 1
  59   32   35 1

#	End of record

