#	Name: ASD09080148
#	Creating user name:	WinNT
#	Creation time:	15. 06. 2019 21:20

#	Modifying user name:	WinNT
#	Modification time:	15. 06. 2019 21:20

#	Program:	/corina/corina34_cracker 3.40 0067  02.08.2006

@<TRIPOS>MOLECULE
ASD09080148
  62   65    0    0    0
SMALL
NO_CHARGES


@<TRIPOS>ATOM
   1 C1             1.2196    -0.1506    -0.6514 C.3     
   2 C2            -1.0130   -10.5602    -1.8311 C.ar    
   3 C3            -0.3776   -10.9236    -3.0059 C.ar    
   4 C4            -0.0349    -9.9607    -3.9392 C.ar    
   5 C5            -0.3265    -8.6313    -3.7025 C.ar    
   6 C6            -0.9659    -8.2604    -2.5215 C.ar    
   7 C7            -1.3136    -9.2341    -1.5875 C.ar    
   8 Cl8           -1.4391   -11.7737    -0.6652 Cl      
   9 Cl9            0.7628   -10.4242    -5.4098 Cl      
  10 C10           -1.2806    -6.8337    -2.2617 C.ar    
  11 C11           -1.9200    -6.4625    -1.0806 C.ar    
  12 C12           -2.2102    -5.1340    -0.8442 C.ar    
  13 C13           -1.8667    -4.1718    -1.7766 C.ar    
  14 C14           -1.2318    -4.5347    -2.9507 C.ar    
  15 C15           -0.9325    -5.8597    -3.1953 C.ar    
  16 C16           -2.1858    -2.7229    -1.5125 C.3     
  17 C17           -1.0127    -2.0674    -0.7809 C.3     
  18 C18           -1.2827    -0.5697    -0.6233 C.3     
  19 C19           -0.1096     0.0857     0.1083 C.3     
  20 O20            0.1504    -0.5770     1.3691 O.3     
  21 C21            1.5410    -0.3282     1.6352 C.3     
  22 O22            2.2105    -0.0738     0.3932 O.3     
  23 C23            1.6792     0.8886     2.5524 C.3     
  24 C24            2.1616    -1.5517     2.3125 C.3     
  25 O25           -1.4318     0.0258    -1.9137 O.3     
  26 C26           -2.2670     1.7908    -3.3052 C.ar    
  27 C27           -3.1982     1.3870    -4.2436 C.ar    
  28 C28           -3.1963     1.9505    -5.5059 C.ar    
  29 C29           -2.2636     2.9180    -5.8296 C.ar    
  30 C30           -1.3330     3.3224    -4.8908 C.ar    
  31 C31           -1.3339     2.7580    -3.6290 C.ar    
  32 C32           -2.2729     1.1810    -1.9271 C.3     
  33 N33           -0.8598    -2.6779     0.5420 N.2     
  34 N34           -0.5721    -3.7608     0.6314 N.1     
  35 N35           -0.2843    -4.8437     0.7208 N.pl3   
  36 H36            1.2269    -1.1358    -1.1176 H       
  37 H37            1.3824     0.6298    -1.3948 H       
  38 H38           -0.1483   -11.9619    -3.1948 H       
  39 H39           -0.0584    -7.8806    -4.4311 H       
  40 H40           -1.8096    -8.9515    -0.6707 H       
  41 H41           -2.1886    -7.2130    -0.3519 H       
  42 H42           -2.7061    -4.8453     0.0708 H       
  43 H43           -0.9665    -3.7794    -3.6756 H       
  44 H44           -0.4367    -6.1419    -4.1123 H       
  45 H45           -2.3559    -2.2099    -2.4591 H       
  46 H46           -3.0822    -2.6547    -0.8962 H       
  47 H47           -0.0985    -2.2133    -1.3563 H       
  48 H48           -2.1969    -0.4239    -0.0480 H       
  49 H49           -0.2905     1.1503     0.2564 H       
  50 H50            1.1598     0.6967     3.4912 H       
  51 H51            2.7344     1.0748     2.7524 H       
  52 H52            1.2419     1.7610     2.0669 H       
  53 H53            2.0678    -2.4170     1.6563 H       
  54 H54            3.2158    -1.3603     2.5131 H       
  55 H55            1.6433    -1.7495     3.2508 H       
  56 H56           -3.9269     0.6311    -3.9907 H       
  57 H57           -3.9234     1.6345    -6.2394 H       
  58 H58           -2.2618     3.3577    -6.8161 H       
  59 H59           -0.6038     4.0779    -5.1440 H       
  60 H60           -0.6064     3.0734    -2.8958 H       
  61 H61           -3.2900     0.8930    -1.6616 H       
  62 H62           -1.9015     1.9091    -1.2060 H       
@<TRIPOS>BOND
   1    1   19 1
   2    1   22 1
   3    1   36 1
   4    1   37 1
   5    2    3 ar
   6    2    8 1
   7    2    7 ar
   8    3    4 ar
   9    3   38 1
  10    4    5 ar
  11    4    9 1
  12    5    6 ar
  13    5   39 1
  14    6    7 ar
  15    6   10 1
  16    7   40 1
  17   10   11 ar
  18   10   15 ar
  19   11   12 ar
  20   11   41 1
  21   12   13 ar
  22   12   42 1
  23   13   14 ar
  24   13   16 1
  25   14   15 ar
  26   14   43 1
  27   15   44 1
  28   16   17 1
  29   16   45 1
  30   16   46 1
  31   17   18 1
  32   17   33 1
  33   17   47 1
  34   18   25 1
  35   18   19 1
  36   18   48 1
  37   19   20 1
  38   19   49 1
  39   20   21 1
  40   21   22 1
  41   21   23 1
  42   21   24 1
  43   23   50 1
  44   23   51 1
  45   23   52 1
  46   24   53 1
  47   24   54 1
  48   24   55 1
  49   25   32 1
  50   26   27 ar
  51   26   31 ar
  52   26   32 1
  53   27   28 ar
  54   27   56 1
  55   28   29 ar
  56   28   57 1
  57   29   30 ar
  58   29   58 1
  59   30   31 ar
  60   30   59 1
  61   31   60 1
  62   32   61 1
  63   32   62 1
  64   33   34 2
  65   34   35 2

#	End of record

