#	Name: ASD03330804
#	Creating user name:	WinNT
#	Creation time:	15. 06. 2019 20:38

#	Modifying user name:	WinNT
#	Modification time:	15. 06. 2019 20:38

#	Program:	/corina/corina34_cracker 3.40 0067  02.08.2006

@<TRIPOS>MOLECULE
ASD03330804
  62   64    0    0    0
SMALL
NO_CHARGES


@<TRIPOS>ATOM
   1 C1            -0.4542     1.2739    -0.0913 C.2     
   2 N2            -0.5452    -0.0580    -0.3465 N.pl3   
   3 C3             0.8719     1.5825    -0.0391 C.2     
   4 N4             1.5689     0.4511    -0.2779 N.2     
   5 C5             0.7269    -0.5393    -0.4696 C.2     
   6 C6             1.0935    -1.9342    -0.7676 C.2     
   7 C7             1.4435     2.9142     0.2292 C.2     
   8 O8             0.7086     3.8622     0.4298 O.2     
   9 C9             3.3489     4.4051     0.5189 C.3     
  10 N10            2.7807     3.0813     0.2522 N.am    
  11 C11            3.4427     4.6247     2.0302 C.3     
  12 C12            4.7256     4.4923    -0.0878 C.2     
  13 O13            5.3990     3.4910    -0.2100 O.2     
  14 C14           -1.7925    -0.8200    -0.4513 C.3     
  15 C15           -2.7717    -0.0595    -1.3510 C.3     
  16 C16           -3.5787     0.9287    -0.5153 C.3     
  17 N17           -2.7756     1.4685     0.5836 N.3     
  18 C18           -1.6156     2.2185     0.0795 C.3     
  19 C19            1.8471    -2.2321    -2.0348 C.3     
  20 C20            2.4735    -3.6263    -1.9435 C.3     
  21 C21           -3.5944     2.3015     1.4744 C.3     
  22 N22            5.2085     5.6830    -0.4946 N.am    
  23 O23            1.4721    -4.5446    -1.4889 O.3     
  24 C24            4.2460     3.4862     2.6621 C.3     
  25 C25            0.7542    -2.8789     0.0887 C.2     
  26 C26            1.0881    -4.3276    -0.1298 C.3     
  27 C27            6.4983     5.7528    -1.1859 C.3     
  28 C28            4.1404     5.9574     2.3095 C.3     
  29 C29            2.0354     4.6502     2.6301 C.3     
  30 H30            2.7091     5.1703     0.0796 H       
  31 H31            3.3668     2.3252     0.0922 H       
  32 H32           -1.5860    -1.7992    -0.8833 H       
  33 H33           -2.2288    -0.9428     0.5400 H       
  34 H34           -2.2152     0.4822    -2.1159 H       
  35 H35           -3.4487    -0.7672    -1.8295 H       
  36 H36           -3.9102     1.7487    -1.1523 H       
  37 H37           -4.4514     0.4208    -0.1046 H       
  38 H38           -1.3487     2.9992     0.7919 H       
  39 H39           -1.8628     2.6696    -0.8815 H       
  40 H40            1.1618    -2.1968    -2.8816 H       
  41 H41            2.6329    -1.4895    -2.1729 H       
  42 H42            2.8318    -3.9321    -2.9265 H       
  43 H43            3.3032    -3.6097    -1.2368 H       
  44 H44           -4.4014     1.7006     1.8937 H       
  45 H45           -2.9732     2.6896     2.2816 H       
  46 H46           -4.0162     3.1324     0.9089 H       
  47 H47            4.7022     6.4937    -0.3296 H       
  48 H48            5.2485     3.4680     2.2347 H       
  49 H49            4.3128     3.6427     3.7388 H       
  50 H50            3.7489     2.5368     2.4631 H       
  51 H51            0.2119    -2.6004     0.9802 H       
  52 H52            0.2178    -4.9390     0.1084 H       
  53 H53            1.9152    -4.6101     0.5216 H       
  54 H54            7.2804     5.3594    -0.5365 H       
  55 H55            6.4531     5.1608    -2.1000 H       
  56 H56            6.7210     6.7902    -1.4355 H       
  57 H57            3.5452     6.7725     1.8978 H       
  58 H58            4.2471     6.0931     3.3857 H       
  59 H59            5.1260     5.9561     1.8439 H       
  60 H60            1.5384     3.7008     2.4311 H       
  61 H61            2.1023     4.8067     3.7068 H       
  62 H62            1.4632     5.4613     2.1799 H       
@<TRIPOS>BOND
   1    1    2 1
   2    1    3 2
   3    1   18 1
   4    2   14 1
   5    2    5 1
   6    3    4 1
   7    3    7 1
   8    4    5 2
   9    5    6 1
  10    6   25 2
  11    6   19 1
  12    7    8 2
  13    7   10 am
  14    9   10 1
  15    9   11 1
  16    9   12 1
  17    9   30 1
  18   10   31 1
  19   11   24 1
  20   11   28 1
  21   11   29 1
  22   12   13 2
  23   12   22 am
  24   14   15 1
  25   14   32 1
  26   14   33 1
  27   15   16 1
  28   15   34 1
  29   15   35 1
  30   16   17 1
  31   16   36 1
  32   16   37 1
  33   17   18 1
  34   17   21 1
  35   18   38 1
  36   18   39 1
  37   19   20 1
  38   19   40 1
  39   19   41 1
  40   20   23 1
  41   20   42 1
  42   20   43 1
  43   21   44 1
  44   21   45 1
  45   21   46 1
  46   22   27 1
  47   22   47 1
  48   23   26 1
  49   24   48 1
  50   24   49 1
  51   24   50 1
  52   25   26 1
  53   25   51 1
  54   26   52 1
  55   26   53 1
  56   27   54 1
  57   27   55 1
  58   27   56 1
  59   28   57 1
  60   28   58 1
  61   28   59 1
  62   29   60 1
  63   29   61 1
  64   29   62 1

#	End of record

