#	Name: ASD03240948
#	Creating user name:	WinNT
#	Creation time:	15. 06. 2019 20:35

#	Modifying user name:	WinNT
#	Modification time:	15. 06. 2019 20:35

#	Program:	/corina/corina34_cracker 3.40 0067  02.08.2006

@<TRIPOS>MOLECULE
ASD03240948
  73   79    0    0    0
SMALL
NO_CHARGES


@<TRIPOS>ATOM
   1 N1             0.1250     1.8413     0.0336 N.3     
   2 C2            -0.0668     0.3892     0.1393 C.3     
   3 C3             0.6082    -0.1244     1.4132 C.3     
   4 C4             2.1017     0.2098     1.3639 C.3     
   5 C5             2.2731     1.7230     1.2049 C.3     
   6 C6             1.5498     2.1831    -0.0629 C.3     
   7 C7             2.7609    -0.2402     2.6421 C.2     
   8 O8             2.1021    -0.7757     3.5082 O.2     
   9 N9             4.0825    -0.0476     2.8228 N.am    
  10 C10            4.8382    -1.7544     5.9885 C.ar    
  11 C11            4.2257    -1.4645     4.7870 C.ar    
  12 C12            4.6748    -0.3743     4.0434 C.ar    
  13 C13            5.7311     0.3808     4.5504 C.ar    
  14 C14            6.2896     0.0246     5.7604 C.ar    
  15 N15            5.8360    -1.0151     6.4349 N.ar    
  16 C16           -0.6262     2.3901    -1.1033 C.3     
  17 C17           -0.6078     3.8955    -1.0378 C.ar    
  18 C18            0.4051     4.6000    -1.6637 C.ar    
  19 C19            0.4272     5.9784    -1.6077 C.ar    
  20 C20           -0.5746     6.6617    -0.9182 C.ar    
  21 C21           -1.5932     5.9457    -0.2892 C.ar    
  22 C22           -1.6071     4.5677    -0.3569 C.ar    
  23 N23            1.8859    10.7496    -0.6595 N.pl3   
  24 C24            1.9248    12.1163    -0.5985 C.2     
  25 N25            0.8057    12.8621    -0.6032 N.2     
  26 C26           -0.3855    12.3252    -0.6662 C.2     
  27 C27           -0.5060    10.8704    -0.7337 C.ar    
  28 C28           -1.7520    10.2378    -0.8018 C.ar    
  29 C29           -1.7746     8.8485    -0.8634 C.ar    
  30 C30           -0.5565     8.1410    -0.8539 C.ar    
  31 N31            0.6046     8.7749    -0.7880 N.ar    
  32 C32            0.6719    10.0935    -0.7289 C.ar    
  33 C33            3.2643    12.4760    -0.5378 C.2     
  34 C34            4.0171    11.3087    -0.5635 C.2     
  35 N35            3.2050    10.2811    -0.6299 N.2     
  36 C36           -3.0645     8.1212    -0.9366 C.ar    
  37 C37           -4.0840     8.4122    -0.0316 C.ar    
  38 C38           -5.2828     7.7323    -0.1048 C.ar    
  39 C39           -5.4736     6.7639    -1.0739 C.ar    
  40 C40           -4.4653     6.4706    -1.9744 C.ar    
  41 C41           -3.2645     7.1480    -1.9144 C.ar    
  42 C42            5.5216    11.2351    -0.5166 C.3     
  43 H43           -1.1329     0.1655     0.1777 H       
  44 H44            0.3757    -0.0997    -0.7286 H       
  45 H45            0.1568     0.3539     2.2824 H       
  46 H46            0.4791    -1.2044     1.4833 H       
  47 H47            2.5612    -0.2998     0.5169 H       
  48 H48            1.8479     2.2304     2.0709 H       
  49 H49            3.3335     1.9629     1.1263 H       
  50 H50            1.9847     1.6857    -0.9298 H       
  51 H51            1.6579     3.2623    -0.1713 H       
  52 H52            4.6220     0.3181     2.1044 H       
  53 H53            4.4939    -2.5945     6.5735 H       
  54 H54            3.4097    -2.0738     4.4273 H       
  55 H55            6.1074     1.2326     4.0033 H       
  56 H56            7.1087     0.6037     6.1607 H       
  57 H57           -0.1664     2.0613    -2.0353 H       
  58 H58           -1.6567     2.0372    -1.0623 H       
  59 H59            1.1803     4.0698    -2.1969 H       
  60 H60            1.2186     6.5273    -2.0964 H       
  61 H61           -2.3713     6.4691     0.2464 H       
  62 H62           -2.3975     4.0124     0.1263 H       
  63 H63           -1.2675    12.9484    -0.6679 H       
  64 H64           -2.6677    10.8105    -0.8068 H       
  65 H65            3.6516    13.4826    -0.4812 H       
  66 H66           -3.9360     9.1678     0.7256 H       
  67 H67           -6.0733     7.9566     0.5960 H       
  68 H68           -6.4134     6.2344    -1.1275 H       
  69 H69           -4.6197     5.7130    -2.7285 H       
  70 H70           -2.4795     6.9214    -2.6208 H       
  71 H71            5.8501    11.1728     0.5208 H       
  72 H72            5.8591    10.3516    -1.0583 H       
  73 H73            5.9436    12.1277    -0.9784 H       
@<TRIPOS>BOND
   1    1    2 1
   2    1    6 1
   3    1   16 1
   4    2    3 1
   5    2   43 1
   6    2   44 1
   7    3    4 1
   8    3   45 1
   9    3   46 1
  10    4    5 1
  11    4    7 1
  12    4   47 1
  13    5    6 1
  14    5   48 1
  15    5   49 1
  16    6   50 1
  17    6   51 1
  18    7    8 2
  19    7    9 am
  20    9   12 1
  21    9   52 1
  22   10   11 ar
  23   10   15 ar
  24   10   53 1
  25   11   12 ar
  26   11   54 1
  27   12   13 ar
  28   13   14 ar
  29   13   55 1
  30   14   15 ar
  31   14   56 1
  32   16   17 1
  33   16   57 1
  34   16   58 1
  35   17   18 ar
  36   17   22 ar
  37   18   19 ar
  38   18   59 1
  39   19   20 ar
  40   19   60 1
  41   20   21 ar
  42   20   30 1
  43   21   22 ar
  44   21   61 1
  45   22   62 1
  46   23   24 1
  47   23   32 1
  48   23   35 1
  49   24   25 1
  50   24   33 2
  51   25   26 2
  52   26   27 1
  53   26   63 1
  54   27   28 ar
  55   27   32 ar
  56   28   29 ar
  57   28   64 1
  58   29   30 ar
  59   29   36 1
  60   30   31 ar
  61   31   32 ar
  62   33   34 1
  63   33   65 1
  64   34   35 2
  65   34   42 1
  66   36   37 ar
  67   36   41 ar
  68   37   38 ar
  69   37   66 1
  70   38   39 ar
  71   38   67 1
  72   39   40 ar
  73   39   68 1
  74   40   41 ar
  75   40   69 1
  76   41   70 1
  77   42   71 1
  78   42   72 1
  79   42   73 1

#	End of record

