#	Name: ASD07480019
#	Creating user name:	WinNT
#	Creation time:	15. 06. 2019 21:11

#	Modifying user name:	WinNT
#	Modification time:	15. 06. 2019 21:11

#	Program:	/corina/corina34_cracker 3.40 0067  02.08.2006

@<TRIPOS>MOLECULE
ASD07480019
  58   63    0    0    0
SMALL
NO_CHARGES


@<TRIPOS>ATOM
   1 C1            -0.0170     1.4044     0.0098 C.2     
   2 C2             0.0021    -0.0041     0.0020 C.2     
   3 N3             1.1387    -0.6606    -0.0123 N.2     
   4 N4             2.3537     0.0270    -0.0202 N.pl3   
   5 C5             2.3691     1.4002    -0.0130 C.2     
   6 C6             1.1495     2.1027     0.0024 C.2     
   7 C7             3.6601    -0.3624    -0.0348 C.2     
   8 N8             4.3966     0.7335    -0.0359 N.2     
   9 N9             3.6398     1.7744    -0.0231 N.2     
  10 C10            4.1594    -1.7532    -0.0465 C.ar    
  11 C11            5.4914    -2.0157    -0.3735 C.ar    
  12 C12            5.9538    -3.3139    -0.3836 C.ar    
  13 C13            5.0957    -4.3616    -0.0691 C.ar    
  14 C14            3.7689    -4.1037     0.2568 C.ar    
  15 C15            3.3017    -2.8073     0.2748 C.ar    
  16 N16            5.5672    -5.6758    -0.0812 N.3     
  17 C17            4.5008    -6.6214     0.2792 C.3     
  18 C18            5.0437    -8.0505     0.1956 C.3     
  19 O19            6.1858    -8.1718     1.0478 O.3     
  20 C20            7.2441    -7.2659     0.7246 C.3     
  21 C21            6.7235    -5.8289     0.8136 C.3     
  22 N22           -1.1977    -0.7076     0.0101 N.pl3   
  23 C23           -2.5448    -0.1087     0.0262 C.3     
  24 C24           -3.4565    -1.1999     0.6409 C.3     
  25 C25           -2.8416    -2.4928     0.0429 C.3     
  26 C26           -1.3327    -2.1715    -0.0023 C.3     
  27 C27           -0.7254    -2.7385    -1.2596 C.ar    
  28 C28           -0.0043    -3.9161    -1.2080 C.ar    
  29 C29            0.5536    -4.4368    -2.3636 C.ar    
  30 C30            0.3881    -3.7768    -3.5692 C.ar    
  31 C31           -0.3336    -2.5991    -3.6183 C.ar    
  32 C32           -0.8948    -2.0832    -2.4653 C.ar    
  33 F33            1.2592    -5.5878    -2.3143 F       
  34 H34           -0.9601     1.9307     0.0171 H       
  35 H35            1.1405     3.1826     0.0079 H       
  36 H36            6.1583    -1.2023    -0.6185 H       
  37 H37            6.9839    -3.5176    -0.6363 H       
  38 H38            3.1049    -4.9198     0.5006 H       
  39 H39            2.2711    -2.6075     0.5284 H       
  40 H40            4.1632    -6.4192     1.2957 H       
  41 H41            3.6653    -6.5085    -0.4117 H       
  42 H42            4.2736    -8.7518     0.5169 H       
  43 H43            5.3315    -8.2709    -0.8324 H       
  44 H44            8.0655    -7.3997     1.4286 H       
  45 H45            7.5959    -7.4635    -0.2879 H       
  46 H46            7.5106    -5.1373     0.5128 H       
  47 H47            6.4215    -5.6140     1.8387 H       
  48 H48           -2.5542     0.7873     0.6467 H       
  49 H49           -2.8669     0.1277    -0.9879 H       
  50 H50           -3.3861    -1.2006     1.7286 H       
  51 H51           -4.4898    -1.0731     0.3179 H       
  52 H52           -3.0370    -3.3478     0.6901 H       
  53 H53           -3.2241    -2.6729    -0.9618 H       
  54 H54           -0.8378    -2.5919     0.8731 H       
  55 H55            0.1244    -4.4299    -0.2669 H       
  56 H56            0.8231    -4.1819    -4.4709 H       
  57 H57           -0.4629    -2.0840    -4.5587 H       
  58 H58           -1.4589    -1.1630    -2.5046 H       
@<TRIPOS>BOND
   1    1    2 1
   2    1    6 2
   3    1   34 1
   4    2    3 2
   5    2   22 1
   6    3    4 1
   7    4    5 1
   8    4    7 1
   9    5    6 1
  10    5    9 2
  11    6   35 1
  12    7    8 2
  13    7   10 1
  14    8    9 1
  15   10   11 ar
  16   10   15 ar
  17   11   12 ar
  18   11   36 1
  19   12   13 ar
  20   12   37 1
  21   13   14 ar
  22   13   16 1
  23   14   15 ar
  24   14   38 1
  25   15   39 1
  26   16   17 1
  27   16   21 1
  28   17   18 1
  29   17   40 1
  30   17   41 1
  31   18   19 1
  32   18   42 1
  33   18   43 1
  34   19   20 1
  35   20   21 1
  36   20   44 1
  37   20   45 1
  38   21   46 1
  39   21   47 1
  40   22   23 1
  41   22   26 1
  42   23   24 1
  43   23   48 1
  44   23   49 1
  45   24   25 1
  46   24   50 1
  47   24   51 1
  48   25   26 1
  49   25   52 1
  50   25   53 1
  51   26   27 1
  52   26   54 1
  53   27   28 ar
  54   27   32 ar
  55   28   29 ar
  56   28   55 1
  57   29   30 ar
  58   29   33 1
  59   30   31 ar
  60   30   56 1
  61   31   32 ar
  62   31   57 1
  63   32   58 1

#	End of record

