#	Name: ASD01884460
#	Creating user name:	WinNT
#	Creation time:	15. 06. 2019 19:48

#	Modifying user name:	WinNT
#	Modification time:	15. 06. 2019 19:48

#	Program:	/corina/corina34_cracker 3.40 0067  02.08.2006

@<TRIPOS>MOLECULE
ASD01884460
  44   46    0    0    0
SMALL
NO_CHARGES


@<TRIPOS>ATOM
   1 C1            -0.0164     1.3575     0.0095 C.2     
   2 C2             0.0021    -0.0041     0.0020 C.2     
   3 C3             1.2441    -0.6750    -0.0134 C.2     
   4 C4             2.4025     0.0467    -0.0206 C.2     
   5 N5             2.3701     1.4021    -0.0126 N.am    
   6 C6             1.1988     2.0651     0.0017 C.2     
   7 C7             1.2900    -2.1582    -0.0214 C.ar    
   8 C8             3.6267     2.1552    -0.0196 C.3     
   9 O9             1.1913     3.2854     0.0083 O.2     
  10 C10            4.0449     2.4215    -1.4427 C.ar    
  11 C11            3.6211     3.5707    -2.0838 C.ar    
  12 C12            4.0043     3.8155    -3.3890 C.ar    
  13 C13            4.8120     2.9102    -4.0539 C.ar    
  14 C14            5.2358     1.7603    -3.4118 C.ar    
  15 C15            4.8566     1.5194    -2.1047 C.ar    
  16 C16            0.8131    -2.8784     1.0721 C.ar    
  17 C17            1.8047    -2.8360    -1.1247 C.ar    
  18 C18            1.8445    -4.2156    -1.1268 C.ar    
  19 C19            1.3742    -4.9253    -0.0367 C.ar    
  20 C20            0.8577    -4.2578     1.0592 C.ar    
  21 Cl21           5.2932     3.2167    -5.6935 Cl      
  22 C22            1.4199    -6.4316    -0.0452 C.3     
  23 C23            2.7506    -6.9049     0.5432 C.3     
  24 C24            2.7962    -8.4111     0.5347 C.2     
  25 O25            1.8604    -9.0415     0.1025 O.2     
  26 O26            3.8764    -9.0525     1.0074 O.3     
  27 H27           -0.9563     1.8894     0.0168 H       
  28 H28           -0.9217    -0.5636     0.0082 H       
  29 H29            3.3529    -0.4662    -0.0325 H       
  30 H30            3.4856     3.1024     0.5010 H       
  31 H31            4.4004     1.5756     0.4840 H       
  32 H32            2.9903     4.2771    -1.5647 H       
  33 H33            3.6729     4.7131    -3.8898 H       
  34 H34            5.8663     1.0533    -3.9303 H       
  35 H35            5.1873     0.6218    -1.6033 H       
  36 H36            0.4096    -2.3581     1.9282 H       
  37 H37            2.1716    -2.2828    -1.9766 H       
  38 H38            2.2433    -4.7419    -1.9814 H       
  39 H39            0.4919    -4.8168     1.9077 H       
  40 H40            0.5979    -6.8234     0.5540 H       
  41 H41            1.3268    -6.7922    -1.0696 H       
  42 H42            3.5725    -6.5131    -0.0559 H       
  43 H43            2.8436    -6.5443     1.5676 H       
  44 H44            3.8595   -10.0190     0.9813 H       
@<TRIPOS>BOND
   1    1    2 2
   2    1    6 1
   3    1   27 1
   4    2    3 1
   5    2   28 1
   6    3    4 2
   7    3    7 1
   8    4    5 1
   9    4   29 1
  10    5    6 am
  11    5    8 1
  12    6    9 2
  13    7   16 ar
  14    7   17 ar
  15    8   10 1
  16    8   30 1
  17    8   31 1
  18   10   11 ar
  19   10   15 ar
  20   11   12 ar
  21   11   32 1
  22   12   13 ar
  23   12   33 1
  24   13   14 ar
  25   13   21 1
  26   14   15 ar
  27   14   34 1
  28   15   35 1
  29   16   20 ar
  30   16   36 1
  31   17   18 ar
  32   17   37 1
  33   18   19 ar
  34   18   38 1
  35   19   20 ar
  36   19   22 1
  37   20   39 1
  38   22   23 1
  39   22   40 1
  40   22   41 1
  41   23   24 1
  42   23   42 1
  43   23   43 1
  44   24   25 2
  45   24   26 1
  46   26   44 1

#	End of record

