#	Name: ASD01913717
#	Creating user name:	WinNT
#	Creation time:	15. 06. 2019 20:02

#	Modifying user name:	WinNT
#	Modification time:	15. 06. 2019 20:02

#	Program:	/corina/corina34_cracker 3.40 0067  02.08.2006

@<TRIPOS>MOLECULE
ASD01913717
  47   48    0    0    0
SMALL
NO_CHARGES


@<TRIPOS>ATOM
   1 O1            -0.0163     1.3507     0.0095 O.3     
   2 C2             0.0021    -0.0041     0.0020 C.ar    
   3 N3             1.1629    -0.6405    -0.0125 N.ar    
   4 C4             1.2330    -1.9566    -0.0202 C.ar    
   5 C5             0.0697    -2.7305    -0.0137 C.ar    
   6 C6            -1.1758    -2.0853     0.0016 C.ar    
   7 C7            -1.1995    -0.7061     0.0154 C.ar    
   8 C8             0.1501    -4.2035    -0.0234 C.2     
   9 N9            -0.9786    -4.9401    -0.0170 N.am    
  10 O10            1.2346    -4.7532    -0.0371 O.2     
  11 C11           -0.8988    -6.4029    -0.0266 C.3     
  12 C12            1.2480     2.0168     0.0010 C.3     
  13 C13            1.0303     3.5079     0.0111 C.ar    
  14 C14            0.9420     4.1848     1.2124 C.ar    
  15 C15            0.7419     5.5551     1.2214 C.ar    
  16 C16            0.6307     6.2451     0.0264 C.ar    
  17 C17            0.7194     5.5659    -1.1741 C.ar    
  18 C18            0.9247     4.1990    -1.1819 C.ar    
  19 F19            0.6550     6.2179     2.3954 F       
  20 Cl20           2.7843    -2.7354    -0.0392 Cl      
  21 C21           -2.1705    -6.9871     0.5918 C.3     
  22 C22           -3.3861    -6.5373    -0.2213 C.3     
  23 C23           -2.0872    -8.5148     0.5817 C.3     
  24 C24           -2.3101    -6.4934     2.0332 C.3     
  25 C25           -0.7593    -6.8966    -1.4680 C.3     
  26 H26           -2.0936    -2.6545     0.0070 H       
  27 H27           -2.1407    -0.1766     0.0275 H       
  28 H28           -1.8438    -4.5016    -0.0061 H       
  29 H29           -0.0328    -6.7233     0.5527 H       
  30 H30            1.8174     1.7267     0.8840 H       
  31 H31            1.8004     1.7363    -0.8958 H       
  32 H32            1.0285     3.6454     2.1440 H       
  33 H33            0.4743     7.3137     0.0322 H       
  34 H34            0.6326     6.1040    -2.1065 H       
  35 H35            0.9942     3.6691    -2.1204 H       
  36 H36           -3.2866    -6.8890    -1.2482 H       
  37 H37           -4.2920    -6.9535     0.2192 H       
  38 H38           -3.4454    -5.4490    -0.2142 H       
  39 H39           -1.2212    -8.8352     1.1610 H       
  40 H40           -2.9932    -8.9310     1.0223 H       
  41 H41           -1.9878    -8.8665    -0.4451 H       
  42 H42           -2.3694    -5.4050     2.0403 H       
  43 H43           -3.2161    -6.9096     2.4737 H       
  44 H44           -1.4441    -6.8138     2.6124 H       
  45 H45           -1.6252    -6.5762    -2.0472 H       
  46 H46            0.1467    -6.4804    -1.9085 H       
  47 H47           -0.6999    -7.9849    -1.4751 H       
@<TRIPOS>BOND
   1    1    2 1
   2    1   12 1
   3    2    3 ar
   4    2    7 ar
   5    3    4 ar
   6    4    5 ar
   7    4   20 1
   8    5    6 ar
   9    5    8 1
  10    6    7 ar
  11    6   26 1
  12    7   27 1
  13    8    9 am
  14    8   10 2
  15    9   11 1
  16    9   28 1
  17   11   21 1
  18   11   25 1
  19   11   29 1
  20   12   13 1
  21   12   30 1
  22   12   31 1
  23   13   14 ar
  24   13   18 ar
  25   14   15 ar
  26   14   32 1
  27   15   16 ar
  28   15   19 1
  29   16   17 ar
  30   16   33 1
  31   17   18 ar
  32   17   34 1
  33   18   35 1
  34   21   22 1
  35   21   23 1
  36   21   24 1
  37   22   36 1
  38   22   37 1
  39   22   38 1
  40   23   39 1
  41   23   40 1
  42   23   41 1
  43   24   42 1
  44   24   43 1
  45   24   44 1
  46   25   45 1
  47   25   46 1
  48   25   47 1

#	End of record

