#	Name: ASD04598004
#	Creating user name:	WinNT
#	Creation time:	15. 06. 2019 20:52

#	Modifying user name:	WinNT
#	Modification time:	15. 06. 2019 20:52

#	Program:	/corina/corina34_cracker 3.40 0067  02.08.2006

@<TRIPOS>MOLECULE
ASD04598004
  28   29    0    0    0
SMALL
NO_CHARGES


@<TRIPOS>ATOM
   1 C1            -0.0169     1.3948     0.0097 C.ar    
   2 C2             0.0021    -0.0041     0.0020 C.ar    
   3 C3             1.2219    -0.6787    -0.0133 C.ar    
   4 C4             2.4058     0.0379    -0.0207 C.ar    
   5 C5             2.3808     1.4261    -0.0126 C.ar    
   6 C6             1.1756     2.1009     0.0021 C.ar    
   7 O7            -1.2014     2.0595     0.0189 O.3     
   8 O8             3.5964    -0.6190    -0.0356 O.3     
   9 C9             4.7795     0.1824    -0.0426 C.3     
  10 N10           -2.4313    -0.1186     0.0256 N.ar    
  11 C11           -1.2684    -0.7650     0.0106 C.ar    
  12 N12           -1.2476    -2.0954     0.0028 N.ar    
  13 C13           -2.3883    -2.7777     0.0100 C.ar    
  14 N14           -3.5497    -2.1313     0.0250 N.ar    
  15 C15           -3.5713    -0.8023     0.0328 C.ar    
  16 N16           -4.7778    -0.1320     0.0484 N.pl3   
  17 N17           -2.3669    -4.1578     0.0015 N.pl3   
  18 H18            1.2430    -1.7585    -0.0189 H       
  19 H19            3.3075     1.9806    -0.0177 H       
  20 H20            1.1626     3.1808     0.0080 H       
  21 H21           -1.5402     2.2471     0.9050 H       
  22 H22            4.8007     0.8068     0.8506 H       
  23 H23            5.6566    -0.4647    -0.0544 H       
  24 H24            4.7837     0.8163    -0.9293 H       
  25 H25           -4.7937     0.8379     0.0540 H       
  26 H26           -5.6097    -0.6307     0.0536 H       
  27 H27           -1.5195    -4.6296    -0.0098 H       
  28 H28           -3.1993    -4.6558     0.0067 H       
@<TRIPOS>BOND
   1    1    2 ar
   2    1    6 ar
   3    1    7 1
   4    2    3 ar
   5    2   11 1
   6    3    4 ar
   7    3   18 1
   8    4    5 ar
   9    4    8 1
  10    5    6 ar
  11    5   19 1
  12    6   20 1
  13    7   21 1
  14    8    9 1
  15    9   22 1
  16    9   23 1
  17    9   24 1
  18   10   11 ar
  19   10   15 ar
  20   11   12 ar
  21   12   13 ar
  22   13   14 ar
  23   13   17 1
  24   14   15 ar
  25   15   16 1
  26   16   25 1
  27   16   26 1
  28   17   27 1
  29   17   28 1

#	End of record

