#	Name: ASD01914068
#	Creating user name:	WinNT
#	Creation time:	15. 06. 2019 20:02

#	Modifying user name:	WinNT
#	Modification time:	15. 06. 2019 20:02

#	Program:	/corina/corina34_cracker 3.40 0067  02.08.2006

@<TRIPOS>MOLECULE
ASD01914068
  48   49    0    0    0
SMALL
NO_CHARGES


@<TRIPOS>ATOM
   1 C1            -0.0167     1.3777     0.0096 C.ar    
   2 C2             0.0021    -0.0041     0.0020 C.ar    
   3 C3            -1.1984    -0.7172     0.0101 C.ar    
   4 C4            -2.4204     1.3550     0.0440 C.ar    
   5 C5            -1.2234     2.0572     0.0306 C.ar    
   6 O6            -3.6014     2.0272     0.0645 O.3     
   7 C7            -3.5355     3.4546     0.0712 C.3     
   8 C8            -4.9315     4.0218     0.0942 C.ar    
   9 N9            -5.1002     5.3302     0.1036 N.ar    
  10 C10           -6.2981     5.8770     0.1237 C.ar    
  11 C11           -7.4423     5.0787     0.1364 C.ar    
  12 C12           -7.2955     3.6862     0.1268 C.ar    
  13 C13           -6.0154     3.1620     0.0995 C.ar    
  14 C14           -8.7869     5.6926     0.1599 C.2     
  15 N15           -8.9151     7.0343     0.1693 N.am    
  16 O16           -9.7769     4.9874     0.1708 O.2     
  17 C17           -2.4127    -0.0298     0.0259 C.ar    
  18 C18          -10.2476     7.6427     0.1927 C.3     
  19 F19            1.1450     2.0674     0.0022 F       
  20 C20           -1.1835    -2.1491     0.0018 C.1     
  21 N21           -1.1717    -3.2850    -0.0048 N.1     
  22 C22          -10.1124     9.1666     0.1992 C.3     
  23 C23          -11.5040     9.8020     0.2235 C.3     
  24 C24          -12.2487     9.3507     1.4816 C.3     
  25 C25          -11.3688    11.3260     0.2301 C.3     
  26 C26          -12.2861     9.3647    -1.0166 C.3     
  27 H27            0.9443    -0.5318    -0.0105 H       
  28 H28           -1.2327     3.1370     0.0451 H       
  29 H29           -2.9928     3.7892     0.9553 H       
  30 H30           -3.0183     3.7986    -0.8245 H       
  31 H31           -6.3956     6.9525     0.1309 H       
  32 H32           -8.1594     3.0381     0.1362 H       
  33 H33           -5.8636     2.0927     0.0915 H       
  34 H34           -8.1251     7.5970     0.1607 H       
  35 H35           -3.3441    -0.5764     0.0322 H       
  36 H36          -10.8048     7.3311    -0.6908 H       
  37 H37          -10.7782     7.3211     1.0889 H       
  38 H38           -9.5552     9.4782     1.0827 H       
  39 H39           -9.5818     9.4882    -0.6970 H       
  40 H40          -11.6916     9.6623     2.3651 H       
  41 H41          -13.2401     9.8034     1.4989 H       
  42 H42          -12.3451     8.2650     1.4769 H       
  43 H43          -10.8382    11.6475    -0.6662 H       
  44 H44          -12.3602    11.7787     0.2474 H       
  45 H45          -10.8116    11.6376     1.1136 H       
  46 H46          -12.3824     8.2790    -1.0212 H       
  47 H47          -13.2775     9.8174    -0.9993 H       
  48 H48          -11.7555     9.6862    -1.9128 H       
@<TRIPOS>BOND
   1    1    2 ar
   2    1   19 1
   3    1    5 ar
   4    2    3 ar
   5    2   27 1
   6    3   17 ar
   7    3   20 1
   8    4    5 ar
   9    4    6 1
  10    4   17 ar
  11    5   28 1
  12    6    7 1
  13    7    8 1
  14    7   29 1
  15    7   30 1
  16    8    9 ar
  17    8   13 ar
  18    9   10 ar
  19   10   11 ar
  20   10   31 1
  21   11   12 ar
  22   11   14 1
  23   12   13 ar
  24   12   32 1
  25   13   33 1
  26   14   15 am
  27   14   16 2
  28   15   18 1
  29   15   34 1
  30   17   35 1
  31   18   22 1
  32   18   36 1
  33   18   37 1
  34   20   21 3
  35   22   23 1
  36   22   38 1
  37   22   39 1
  38   23   24 1
  39   23   25 1
  40   23   26 1
  41   24   40 1
  42   24   41 1
  43   24   42 1
  44   25   43 1
  45   25   44 1
  46   25   45 1
  47   26   46 1
  48   26   47 1
  49   26   48 1

#	End of record

