#	Name: ASD01901164
#	Creating user name:	WinNT
#	Creation time:	15. 06. 2019 19:53

#	Modifying user name:	WinNT
#	Modification time:	15. 06. 2019 19:53

#	Program:	/corina/corina34_cracker 3.40 0067  02.08.2006

@<TRIPOS>MOLECULE
ASD01901164
  49   51    0    0    0
SMALL
NO_CHARGES


@<TRIPOS>ATOM
   1 C1            -0.0166     1.3750     0.0096 C.ar    
   2 C2             0.0021    -0.0041     0.0020 C.ar    
   3 C3             1.2078    -0.6830    -0.0131 C.ar    
   4 C4             2.4027     0.0149    -0.0208 C.ar    
   5 C5             2.3997     1.3941    -0.0129 C.ar    
   6 C6             1.1860     2.0866     0.0019 C.ar    
   7 C7             1.1748     3.5185     0.0093 C.1     
   8 C8             1.1655     4.6925     0.0153 C.1     
   9 C9             1.1543     6.1244     0.0226 C.ar    
  10 C10            2.3583     6.8345     0.0149 C.ar    
  11 C11            2.3436     8.2144     0.0221 C.ar    
  12 C12            1.1325     8.8988     0.0369 C.ar    
  13 C13           -0.0678     8.1953     0.0446 C.ar    
  14 C14           -0.0608     6.8154     0.0317 C.ar    
  15 N15            1.1215    10.3012     0.0446 N.am    
  16 C16            1.1055    10.9692    -1.1209 C.2     
  17 N17            1.3324    12.2916    -1.1768 N.am    
  18 C18            1.7285    13.0383     0.0186 C.3     
  19 C19            1.0133    12.4612     1.2424 C.3     
  20 C20            1.1214    10.9575     1.2192 C.2     
  21 O21            0.8808    10.3619    -2.1495 O.2     
  22 F22            3.5068     8.9015     0.0151 F       
  23 O23            1.2120    10.3403     2.2589 O.2     
  24 F24           -1.2416     8.8640     0.0590 F       
  25 C25            3.2419    12.9211     0.2103 C.3     
  26 C26            1.1818    12.9969    -2.4520 C.3     
  27 C27            1.3483    14.5111    -0.1466 C.3     
  28 O28            3.9099    13.4600    -0.9323 O.3     
  29 C29            5.3355    13.3990    -0.8546 C.3     
  30 H30           -0.9584     1.9035     0.0169 H       
  31 H31           -0.9266    -0.5554     0.0083 H       
  32 H32            1.2163    -1.7630    -0.0187 H       
  33 H33            3.3399    -0.5217    -0.0326 H       
  34 H34            3.3330     1.9375    -0.0182 H       
  35 H35            3.2989     6.3039     0.0038 H       
  36 H36           -0.9929     6.2700     0.0328 H       
  37 H37            1.4763    12.8473     2.1505 H       
  38 H38           -0.0381    12.7476     1.2185 H       
  39 H39            3.5395    13.4757     1.1002 H       
  40 H40            3.5131    11.8720     0.3284 H       
  41 H41            0.8851    12.2890    -3.2259 H       
  42 H42            0.4179    13.7680    -2.3527 H       
  43 H43            2.1305    13.4584    -2.7261 H       
  44 H44            1.6463    15.0653     0.7434 H       
  45 H45            1.8576    14.9223    -1.0181 H       
  46 H46            0.2701    14.5949    -0.2827 H       
  47 H47            5.6765    13.9635     0.0133 H       
  48 H48            5.6500    12.3598    -0.7585 H       
  49 H49            5.7673    13.8272    -1.7591 H       
@<TRIPOS>BOND
   1    1    2 ar
   2    1    6 ar
   3    1   30 1
   4    2    3 ar
   5    2   31 1
   6    3    4 ar
   7    3   32 1
   8    4    5 ar
   9    4   33 1
  10    5    6 ar
  11    5   34 1
  12    6    7 1
  13    7    8 3
  14    8    9 1
  15    9   10 ar
  16    9   14 ar
  17   10   11 ar
  18   10   35 1
  19   11   12 ar
  20   11   22 1
  21   12   13 ar
  22   12   15 1
  23   13   14 ar
  24   13   24 1
  25   14   36 1
  26   15   16 am
  27   15   20 am
  28   16   17 am
  29   16   21 2
  30   17   26 1
  31   17   18 1
  32   18   19 1
  33   18   27 1
  34   18   25 1
  35   19   20 1
  36   19   37 1
  37   19   38 1
  38   20   23 2
  39   25   28 1
  40   25   39 1
  41   25   40 1
  42   26   41 1
  43   26   42 1
  44   26   43 1
  45   27   44 1
  46   27   45 1
  47   27   46 1
  48   28   29 1
  49   29   47 1
  50   29   48 1
  51   29   49 1

#	End of record

