#	Name: ASD01814051
#	Creating user name:	WinNT
#	Creation time:	15. 06. 2019 19:31

#	Modifying user name:	WinNT
#	Modification time:	15. 06. 2019 19:31

#	Program:	/corina/corina34_cracker 3.40 0067  02.08.2006

@<TRIPOS>MOLECULE
ASD01814051
  56   60    0    0    0
SMALL
NO_CHARGES


@<TRIPOS>ATOM
   1 N1            -0.2158     2.3628     3.2135 N.2     
   2 C2            -0.2760     1.3607     4.0584 C.2     
   3 C3             0.8275     1.0509     4.8682 C.2     
   4 C4             1.9563     1.7960     4.7698 C.2     
   5 N5             1.9921     2.8335     3.8821 N.pl3   
   6 C6             0.8940     3.1056     3.1078 C.2     
   7 N7             2.9828     3.7649     3.5548 N.2     
   8 C8             2.5179     4.5727     2.6232 C.2     
   9 C9             1.2210     4.1986     2.3139 C.2     
  10 C10            2.8948     5.7601     1.7718 C.3     
  11 N11            1.7434     6.0855     0.9245 N.am    
  12 C12            0.6872     5.1212     1.2485 C.3     
  13 C13            1.6696     7.0818     0.0198 C.2     
  14 O14            0.6869     7.1889    -0.6875 O.2     
  15 C15            2.7839     8.0443    -0.1123 C.ar    
  16 C16            2.5390     9.4226    -0.2184 C.ar    
  17 C17            4.1133     7.6086    -0.1295 C.ar    
  18 C18            5.1230     8.5410    -0.2546 C.ar    
  19 N19            4.8524     9.8277    -0.3570 N.ar    
  20 C20            3.6189    10.2876    -0.3408 C.ar    
  21 O21            1.2697     9.9013    -0.2022 O.3     
  22 C22            1.1119    11.3215    -0.2027 C.3     
  23 C23            0.8829    13.3489    -1.6419 C.3     
  24 C24            1.1130    11.8359    -1.6449 C.3     
  25 C25           -0.2182    11.6889     0.4609 C.3     
  26 C26           -0.4098    13.2061     0.4028 C.3     
  27 N27           -0.4021    13.6485    -0.9974 N.3     
  28 C28            3.1546     1.4840     5.6287 C.3     
  29 Cl29           0.7481    -0.2744     5.9866 Cl      
  30 C30           -1.5354     0.5394     4.1601 C.3     
  31 C31           -0.7214    15.0788    -1.0993 C.3     
  32 H32            3.1360     6.6104     2.4097 H       
  33 H33            3.7532     5.5100     1.1483 H       
  34 H34            0.4254     4.5470     0.3598 H       
  35 H35           -0.1913     5.6475     1.6217 H       
  36 H36            4.3461     6.5573    -0.0457 H       
  37 H37            6.1515     8.2117    -0.2686 H       
  38 H38            3.4446    11.3502    -0.4232 H       
  39 H39            1.9329    11.7795     0.3489 H       
  40 H40            1.6874    13.8376    -1.0924 H       
  41 H41            0.8688    13.7161    -2.6681 H       
  42 H42            2.0740    11.6150    -2.1094 H       
  43 H43            0.3162    11.3477    -2.2060 H       
  44 H44           -1.0360    11.1984    -0.0671 H       
  45 H45           -0.2083    11.3628     1.5009 H       
  46 H46           -1.3627    13.4697     0.8618 H       
  47 H47            0.4009    13.6954     0.9427 H       
  48 H48            2.9317     0.6287     6.2665 H       
  49 H49            4.0073     1.2496     4.9913 H       
  50 H50            3.3917     2.3481     6.2494 H       
  51 H51           -2.2779     0.9248     3.4613 H       
  52 H52           -1.3124    -0.4995     3.9169 H       
  53 H53           -1.9270     0.5988     5.1756 H       
  54 H54           -0.7825    15.3634    -2.1497 H       
  55 H55           -1.6779    15.2730    -0.6140 H       
  56 H56            0.0593    15.6611    -0.6099 H       
@<TRIPOS>BOND
   1    1    2 2
   2    1    6 1
   3    2    3 1
   4    2   30 1
   5    3    4 2
   6    3   29 1
   7    4    5 1
   8    4   28 1
   9    5    7 1
  10    5    6 1
  11    6    9 2
  12    7    8 2
  13    8   10 1
  14    8    9 1
  15    9   12 1
  16   10   11 1
  17   10   32 1
  18   10   33 1
  19   11   12 1
  20   11   13 am
  21   12   34 1
  22   12   35 1
  23   13   14 2
  24   13   15 1
  25   15   17 ar
  26   15   16 ar
  27   16   20 ar
  28   16   21 1
  29   17   18 ar
  30   17   36 1
  31   18   19 ar
  32   18   37 1
  33   19   20 ar
  34   20   38 1
  35   21   22 1
  36   22   25 1
  37   22   24 1
  38   22   39 1
  39   23   24 1
  40   23   27 1
  41   23   40 1
  42   23   41 1
  43   24   42 1
  44   24   43 1
  45   25   26 1
  46   25   44 1
  47   25   45 1
  48   26   27 1
  49   26   46 1
  50   26   47 1
  51   27   31 1
  52   28   48 1
  53   28   49 1
  54   28   50 1
  55   30   51 1
  56   30   52 1
  57   30   53 1
  58   31   54 1
  59   31   55 1
  60   31   56 1

#	End of record

