#	Name: ASD09610019
#	Creating user name:	WinNT
#	Creation time:	15. 06. 2019 21:22

#	Modifying user name:	WinNT
#	Modification time:	15. 06. 2019 21:22

#	Program:	/corina/corina34_cracker 3.40 0067  02.08.2006

@<TRIPOS>MOLECULE
ASD09610019
  41   43    0    0    0
SMALL
NO_CHARGES


@<TRIPOS>ATOM
   1 C1             0.1567     1.1085     1.2146 C.ar    
   2 C2             0.0806    -0.1383     0.5876 C.ar    
   3 C3             1.2126    -0.6340    -0.0702 C.ar    
   4 C4             2.3618     0.1370    -0.0699 C.ar    
   5 C5             2.3566     1.3612     0.5737 C.ar    
   6 N6             1.2754     1.8047     1.1864 N.ar    
   7 C7            -1.1726    -0.9198     0.6190 C.2     
   8 O8            -2.1493    -0.4795     1.1936 O.2     
   9 N9            -1.2332    -2.1209     0.0105 N.am    
  10 C10           -3.1214    -6.5067    -0.0909 C.3     
  11 C11           -1.5972    -6.5935     0.1359 C.3     
  12 C12           -1.1230    -5.1786    -0.2583 C.3     
  13 C13           -2.3169    -4.2797    -0.0180 C.ar    
  14 C14           -2.3931    -2.8961     0.1074 C.ar    
  15 C15           -3.6190    -2.2846     0.3288 C.ar    
  16 C16           -4.7631    -3.0525     0.4241 C.ar    
  17 C17           -4.6858    -4.4262     0.2994 C.ar    
  18 C18           -3.4643    -5.0419     0.0782 C.ar    
  19 C19            0.0518    -4.7478     0.6221 C.3     
  20 C20           -3.4754    -6.9751    -1.5038 C.3     
  21 C21           -3.8619    -7.3489     0.9499 C.3     
  22 Cl22          -1.2354     1.7484     2.0307 Cl      
  23 H23            1.1897    -1.5937    -0.5649 H       
  24 H24            3.2540    -0.2139    -0.5671 H       
  25 H25            3.2527     1.9640     0.5753 H       
  26 H26           -0.4722    -2.4476    -0.4945 H       
  27 H27           -1.3723    -6.8001     1.1823 H       
  28 H28           -1.1510    -7.3467    -0.5135 H       
  29 H29           -0.8372    -5.1547    -1.3099 H       
  30 H30           -3.6782    -1.2107     0.4267 H       
  31 H31           -5.7183    -2.5790     0.5964 H       
  32 H32           -5.5823    -5.0236     0.3752 H       
  33 H33            0.8419    -5.4965     0.5657 H       
  34 H34            0.4346    -3.7886     0.2734 H       
  35 H35           -0.2842    -4.6512     1.6545 H       
  36 H36           -3.1544    -8.0085    -1.6351 H       
  37 H37           -4.5536    -6.9083    -1.6492 H       
  38 H38           -2.9704    -6.3423    -2.2336 H       
  39 H39           -3.6291    -6.9793     1.9486 H       
  40 H40           -4.9358    -7.2779     0.7774 H       
  41 H41           -3.5482    -8.3893     0.8653 H       
@<TRIPOS>BOND
   1    1    2 ar
   2    1    6 ar
   3    1   22 1
   4    2    3 ar
   5    2    7 1
   6    3    4 ar
   7    3   23 1
   8    4    5 ar
   9    4   24 1
  10    5    6 ar
  11    5   25 1
  12    7    8 2
  13    7    9 am
  14    9   14 1
  15    9   26 1
  16   10   11 1
  17   10   18 1
  18   10   20 1
  19   10   21 1
  20   11   12 1
  21   11   27 1
  22   11   28 1
  23   12   13 1
  24   12   19 1
  25   12   29 1
  26   13   14 ar
  27   13   18 ar
  28   14   15 ar
  29   15   16 ar
  30   15   30 1
  31   16   17 ar
  32   16   31 1
  33   17   18 ar
  34   17   32 1
  35   19   33 1
  36   19   34 1
  37   19   35 1
  38   20   36 1
  39   20   37 1
  40   20   38 1
  41   21   39 1
  42   21   40 1
  43   21   41 1

#	End of record

