#	Name: ASD01911094
#	Creating user name:	WinNT
#	Creation time:	15. 06. 2019 19:57

#	Modifying user name:	WinNT
#	Modification time:	15. 06. 2019 19:57

#	Program:	/corina/corina34_cracker 3.40 0067  02.08.2006

@<TRIPOS>MOLECULE
ASD01911094
  45   48    0    0    0
SMALL
NO_CHARGES


@<TRIPOS>ATOM
   1 S1            -0.3642     1.9866     0.4983 S.3     
   2 C2            -0.3486     0.2274     0.3998 C.2     
   3 N3            -1.3939    -0.5970     0.6265 N.2     
   4 C4            -0.9327    -1.8094     0.4418 C.2     
   5 O5             0.3578    -1.6931     0.1135 O.3     
   6 N6             0.6752    -0.5227     0.0882 N.2     
   7 C7            -1.7105    -3.0932     0.5750 C.3     
   8 C8            -1.6970    -3.8396    -0.7610 C.3     
   9 C9            -2.5142    -5.1275    -0.6361 C.3     
  10 C10           -1.8798    -6.0289     0.4277 C.3     
  11 N11           -1.7563    -5.2689     1.6790 N.am    
  12 C12           -1.0670    -3.9716     1.6525 C.3     
  13 C13           -2.2656    -5.7525     2.8293 C.2     
  14 O14           -2.0917    -5.1510     3.8714 O.2     
  15 C15           -3.0351    -7.0134     2.8239 C.ar    
  16 C16           -2.5523    -8.1260     2.1317 C.ar    
  17 C17           -3.2744    -9.3001     2.1298 C.ar    
  18 C18           -4.4781    -9.3777     2.8136 C.ar    
  19 C19           -4.9623    -8.2759     3.5022 C.ar    
  20 C20           -4.2452    -7.0988     3.5157 C.ar    
  21 F21           -5.1819   -10.5309     2.8086 F       
  22 C22            1.3291     2.4119     0.2605 C.ar    
  23 C23            1.8222     2.6161    -1.0224 C.ar    
  24 C24            3.1497     2.9498    -1.2050 C.ar    
  25 C25            3.9882     3.0803    -0.1130 C.ar    
  26 C26            3.5007     2.8778     1.1654 C.ar    
  27 C27            2.1730     2.5495     1.3558 C.ar    
  28 H28           -2.7395    -2.8678     0.8553 H       
  29 H29           -2.1321    -3.2071    -1.5348 H       
  30 H30           -0.6696    -4.0860    -1.0289 H       
  31 H31           -3.5356    -4.8834    -0.3440 H       
  32 H32           -2.5236    -5.6468    -1.5944 H       
  33 H33           -2.5118    -6.9018     0.5912 H       
  34 H34           -0.8920    -6.3476     0.0948 H       
  35 H35           -0.0130    -4.1225     1.4195 H       
  36 H36           -1.1628    -3.4870     2.6242 H       
  37 H37           -1.6150    -8.0665     1.5984 H       
  38 H38           -2.9020   -10.1611     1.5945 H       
  39 H39           -5.9006    -8.3416     4.0328 H       
  40 H40           -4.6231    -6.2413     4.0526 H       
  41 H41            1.1682     2.5137    -1.8757 H       
  42 H42            3.5336     3.1087    -2.2019 H       
  43 H43            5.0261     3.3407    -0.2588 H       
  44 H44            4.1583     2.9802     2.0159 H       
  45 H45            1.7929     2.3916     2.3543 H       
@<TRIPOS>BOND
   1    1    2 1
   2    1   22 1
   3    2    3 1
   4    2    6 2
   5    3    4 2
   6    4    5 1
   7    4    7 1
   8    5    6 1
   9    7    8 1
  10    7   12 1
  11    7   28 1
  12    8    9 1
  13    8   29 1
  14    8   30 1
  15    9   10 1
  16    9   31 1
  17    9   32 1
  18   10   11 1
  19   10   33 1
  20   10   34 1
  21   11   12 1
  22   11   13 am
  23   12   35 1
  24   12   36 1
  25   13   14 2
  26   13   15 1
  27   15   16 ar
  28   15   20 ar
  29   16   17 ar
  30   16   37 1
  31   17   18 ar
  32   17   38 1
  33   18   19 ar
  34   18   21 1
  35   19   20 ar
  36   19   39 1
  37   20   40 1
  38   22   23 ar
  39   22   27 ar
  40   23   24 ar
  41   23   41 1
  42   24   25 ar
  43   24   42 1
  44   25   26 ar
  45   25   43 1
  46   26   27 ar
  47   26   44 1
  48   27   45 1

#	End of record

