#	Name: ASD03240572
#	Creating user name:	WinNT
#	Creation time:	15. 06. 2019 20:35

#	Modifying user name:	WinNT
#	Modification time:	15. 06. 2019 20:35

#	Program:	/corina/corina34_cracker 3.40 0067  02.08.2006

@<TRIPOS>MOLECULE
ASD03240572
  57   63    0    0    0
SMALL
NO_CHARGES


@<TRIPOS>ATOM
   1 C1            -0.0166     1.3754     0.0096 C.ar    
   2 C2             0.0021    -0.0041     0.0020 C.ar    
   3 N3             1.1422    -0.6682    -0.0058 N.ar    
   4 C4             2.3145    -0.0482    -0.0058 C.ar    
   5 C5             2.3701     1.3444    -0.0123 C.ar    
   6 C6             1.1861     2.0697     0.0018 C.ar    
   7 N7             3.4822    -0.8057     0.0217 N.pl3   
   8 C8             4.3601    -0.7200     1.0990 C.ar    
   9 C9             4.9963     0.4887     1.4031 C.ar    
  10 C10            4.7631     1.6818     0.5617 C.2     
  11 N11            3.5943     2.0266    -0.0508 N.pl3   
  12 C12            4.6067    -1.8398     1.8817 C.ar    
  13 C13            5.4672    -1.7548     2.9597 C.ar    
  14 C14            6.0878    -0.5567     3.2688 C.ar    
  15 C15            5.8578     0.5645     2.4972 C.ar    
  16 N16            5.6690     2.5980     0.2784 N.2     
  17 C17            5.1321     3.5328    -0.5069 C.2     
  18 C18            3.8303     3.2037    -0.7344 C.2     
  19 C19            2.8592     3.9588    -1.5533 C.ar    
  20 C20            2.0321     3.2882    -2.4562 C.ar    
  21 C21            2.7606     5.3453    -1.4231 C.ar    
  22 C22            1.8516     6.0441    -2.1902 C.ar    
  23 C23            1.0383     5.3738    -3.0867 C.ar    
  24 C24            1.1274     3.9992    -3.2171 C.ar    
  25 C25            5.8439     4.7452    -1.0495 C.3     
  26 C26            0.0472     6.1437    -3.9209 C.3     
  27 N27            0.3783     7.5710    -4.0274 N.3     
  28 C28           -0.2659     5.4814    -5.2730 C.3     
  29 C29           -1.7306     5.8907    -5.0453 C.3     
  30 C30           -1.4183     5.8782    -3.5378 C.3     
  31 C31            6.4257     5.7345    -0.0378 C.3     
  32 C32            7.3577     4.8269    -0.8431 C.3     
  33 H33           -0.9555     1.9091     0.0170 H       
  34 H34           -0.9306    -0.5486     0.0029 H       
  35 H35            1.2002     3.1496     0.0071 H       
  36 H36            3.6863    -1.3998    -0.7175 H       
  37 H37            4.1255    -2.7780     1.6482 H       
  38 H38            5.6564    -2.6288     3.5653 H       
  39 H39            6.7543    -0.4989     4.1166 H       
  40 H40            6.3434     1.4981     2.7403 H       
  41 H41            2.1007     2.2153    -2.5590 H       
  42 H42            3.3944     5.8697    -0.7232 H       
  43 H43            1.7744     7.1167    -2.0905 H       
  44 H44            0.4899     3.4821    -3.9190 H       
  45 H45            5.4393     5.1524    -1.9761 H       
  46 H46            0.5519     7.9708    -3.1174 H       
  47 H47            1.1657     7.7147    -4.6417 H       
  48 H48            0.2001     5.9811    -6.1223 H       
  49 H49           -0.1095     4.4027    -5.2774 H       
  50 H50           -1.9724     6.8809    -5.4316 H       
  51 H51           -2.4490     5.1295    -5.3496 H       
  52 H52           -1.5769     4.9080    -3.0671 H       
  53 H53           -1.8830     6.6973    -2.9889 H       
  54 H54            6.4042     6.7925    -0.2989 H       
  55 H55            6.2937     5.5084     1.0203 H       
  56 H56            7.8388     4.0037    -0.3149 H       
  57 H57            7.9493     5.2879    -1.6341 H       
@<TRIPOS>BOND
   1    1    2 ar
   2    1    6 ar
   3    1   33 1
   4    2    3 ar
   5    2   34 1
   6    3    4 ar
   7    4    5 ar
   8    4    7 1
   9    5    6 ar
  10    5   11 1
  11    6   35 1
  12    7    8 1
  13    7   36 1
  14    8    9 ar
  15    8   12 ar
  16    9   10 1
  17    9   15 ar
  18   10   11 1
  19   10   16 2
  20   11   18 1
  21   12   13 ar
  22   12   37 1
  23   13   14 ar
  24   13   38 1
  25   14   15 ar
  26   14   39 1
  27   15   40 1
  28   16   17 1
  29   17   18 2
  30   17   25 1
  31   18   19 1
  32   19   20 ar
  33   19   21 ar
  34   20   24 ar
  35   20   41 1
  36   21   22 ar
  37   21   42 1
  38   22   23 ar
  39   22   43 1
  40   23   24 ar
  41   23   26 1
  42   24   44 1
  43   25   31 1
  44   25   32 1
  45   25   45 1
  46   26   27 1
  47   26   28 1
  48   26   30 1
  49   27   46 1
  50   27   47 1
  51   28   29 1
  52   28   48 1
  53   28   49 1
  54   29   30 1
  55   29   50 1
  56   29   51 1
  57   30   52 1
  58   30   53 1
  59   31   32 1
  60   31   54 1
  61   31   55 1
  62   32   56 1
  63   32   57 1

#	End of record

