#	Name: ASD03092499
#	Creating user name:	WinNT
#	Creation time:	15. 06. 2019 20:32

#	Modifying user name:	WinNT
#	Modification time:	15. 06. 2019 20:32

#	Program:	/corina/corina34_cracker 3.40 0067  02.08.2006

@<TRIPOS>MOLECULE
ASD03092499
  39   41    0    0    0
SMALL
NO_CHARGES


@<TRIPOS>ATOM
   1 C1            -0.6926     0.0934     0.5101 C.3     
   2 O2             0.6607    -0.3656     0.5093 O.3     
   3 C3             1.1318    -0.8958    -0.6499 C.ar    
   4 C4             0.3077    -0.9664    -1.7646 C.ar    
   5 C5             0.7832    -1.5036    -2.9427 C.ar    
   6 C6             2.0922    -1.9758    -3.0131 C.ar    
   7 C7             2.9172    -1.9037    -1.8926 C.ar    
   8 C8             2.4379    -1.3605    -0.7187 C.ar    
   9 C9             2.6068    -2.5550    -4.2794 C.2     
  10 N10            2.3985    -2.0587    -5.5073 N.2     
  11 N11            2.9825    -2.7998    -6.3830 N.2     
  12 N12            3.6204    -3.8541    -5.7131 N.pl3   
  13 C13            3.3733    -3.6748    -4.3861 C.2     
  14 C14            3.8525    -4.5484    -3.2555 C.3     
  15 O15            5.1483    -4.1163    -2.8358 O.3     
  16 C16            4.3700    -4.8867    -6.2952 C.ar    
  17 C17            5.6200    -5.2104    -5.7867 C.ar    
  18 C18            6.3560    -6.2284    -6.3617 C.ar    
  19 C19            5.8489    -6.9251    -7.4429 C.ar    
  20 C20            4.6038    -6.6054    -7.9528 C.ar    
  21 C21            3.8601    -5.5919    -7.3785 C.ar    
  22 Cl22           2.2940    -5.1955    -8.0143 Cl      
  23 C23            6.6548    -8.0349    -8.0673 C.3     
  24 F24            6.3455    -9.2461    -7.4392 F       
  25 F25            6.3483    -8.1243    -9.4294 F       
  26 F26            8.0187    -7.7645    -7.9129 F       
  27 H27           -0.8112     0.8759    -0.2394 H       
  28 H28           -1.3582    -0.7375     0.2763 H       
  29 H29           -0.9405     0.4919     1.4938 H       
  30 H30           -0.7070    -0.6006    -1.7093 H       
  31 H31            0.1414    -1.5586    -3.8096 H       
  32 H32            3.9322    -2.2692    -1.9442 H       
  33 H33            3.0783    -1.3003     0.1489 H       
  34 H34            3.1567    -4.4751    -2.4196 H       
  35 H35            3.9064    -5.5832    -3.5936 H       
  36 H36            5.5197    -4.6349    -2.1091 H       
  37 H37            6.0173    -4.6666    -4.9424 H       
  38 H38            7.3290    -6.4801    -5.9664 H       
  39 H39            4.2106    -7.1509    -8.7979 H       
@<TRIPOS>BOND
   1    1    2 1
   2    1   27 1
   3    1   28 1
   4    1   29 1
   5    2    3 1
   6    3    8 ar
   7    3    4 ar
   8    4    5 ar
   9    4   30 1
  10    5    6 ar
  11    5   31 1
  12    6    7 ar
  13    6    9 1
  14    7    8 ar
  15    7   32 1
  16    8   33 1
  17    9   13 2
  18    9   10 1
  19   10   11 2
  20   11   12 1
  21   12   13 1
  22   12   16 1
  23   13   14 1
  24   14   15 1
  25   14   34 1
  26   14   35 1
  27   15   36 1
  28   16   21 ar
  29   16   17 ar
  30   17   18 ar
  31   17   37 1
  32   18   19 ar
  33   18   38 1
  34   19   20 ar
  35   19   23 1
  36   20   21 ar
  37   20   39 1
  38   21   22 1
  39   23   24 1
  40   23   25 1
  41   23   26 1

#	End of record

