#	Name: ASD01150773
#	Creating user name:	WinNT
#	Creation time:	15. 06. 2019 19:05

#	Modifying user name:	WinNT
#	Modification time:	15. 06. 2019 19:05

#	Program:	/corina/corina34_cracker 3.40 0067  02.08.2006

@<TRIPOS>MOLECULE
ASD01150773
  61   64    0    0    0
SMALL
NO_CHARGES


@<TRIPOS>ATOM
   1 C1             0.0487     1.3188     0.1065 C.2     
   2 C2            -0.5050     0.9913    -1.2563 C.3     
   3 F3            -1.6420     0.1882    -1.1170 F       
   4 F4            -0.8486     2.1756    -1.9171 F       
   5 F5             0.4617     0.3060    -2.0000 F       
   6 N6             3.6562     2.0515     0.4838 N.ar    
   7 C7             2.5269     1.4024     0.3743 C.ar    
   8 C8             1.2998     2.0749     0.2275 C.ar    
   9 C9             1.2876     3.4811     0.1977 C.ar    
  10 C10            2.5290     4.1532     0.3189 C.ar    
  11 C11            2.5992     5.5519     0.2986 C.ar    
  12 C12            3.8257     6.1721     0.4198 C.ar    
  13 C13            4.9928     5.4140     0.5615 C.ar    
  14 C14            4.9462     4.0543     0.5835 C.ar    
  15 C15            3.7141     3.3901     0.4630 C.ar    
  16 C16            2.5397    -0.1042     0.4055 C.3     
  17 C17            0.0238     4.2315     0.0449 C.ar    
  18 C18           -0.9533     4.1701     1.0409 C.ar    
  19 C19           -2.1304     4.8734     0.8920 C.ar    
  20 C20           -2.3445     5.6382    -0.2413 C.ar    
  21 C21           -1.3809     5.7031    -1.2323 C.ar    
  22 C22           -0.1965     5.0099    -1.0935 C.ar    
  23 S23           -3.8514     6.5330    -0.4235 S.o2    
  24 O24           -4.0151     6.6611    -1.8292 O.2     
  25 O25           -4.7878     5.8056     0.3598 O.2     
  26 C26           -3.5121     8.1488     0.3278 C.3     
  27 N27            3.9026     7.5662     0.4003 N.3     
  28 C28            2.7459     8.1688     1.0879 C.3     
  29 C29            3.3005     9.0738     2.2081 C.3     
  30 C30            4.7448     9.3770     1.7296 C.3     
  31 C31            5.1396     8.0378     1.0585 C.3     
  32 N32            2.5168    10.3120     2.3113 N.3     
  33 C33            1.1340    10.0276     2.7174 C.3     
  34 C34            3.1520    11.2616     3.2348 C.3     
  35 O35           -0.5430     0.9616     1.1035 O.2     
  36 H36            1.7003     6.1403     0.1887 H       
  37 H37            5.9449     5.9153     0.6544 H       
  38 H38            5.8574     3.4850     0.6933 H       
  39 H39            2.5154    -0.4464     1.4402 H       
  40 H40            1.6669    -0.4860    -0.1240 H       
  41 H41            3.4461    -0.4700    -0.0769 H       
  42 H42           -0.7877     3.5731     1.9255 H       
  43 H43           -2.8868     4.8269     1.6614 H       
  44 H44           -1.5548     6.3013    -2.1145 H       
  45 H45            0.5566     5.0650    -1.8656 H       
  46 H46           -2.6876     8.6287    -0.1995 H       
  47 H47           -4.4013     8.7755     0.2588 H       
  48 H48           -3.2435     8.0132     1.3754 H       
  49 H49            2.1648     8.7643     0.3837 H       
  50 H50            2.1214     7.3861     1.5186 H       
  51 H51            3.3133     8.5441     3.1607 H       
  52 H52            4.7535    10.1932     1.0073 H       
  53 H53            5.3976     9.5979     2.5740 H       
  54 H54            5.4676     7.3192     1.8095 H       
  55 H55            5.9242     8.2005     0.3196 H       
  56 H56            1.1351     9.5327     3.6886 H       
  57 H57            0.5761    10.9614     2.7862 H       
  58 H58            0.6648     9.3775     1.9789 H       
  59 H59            4.1778    11.4471     2.9165 H       
  60 H60            2.5955    12.1989     3.2317 H       
  61 H61            3.1539    10.8435     4.2414 H       
@<TRIPOS>BOND
   1    1    2 1
   2    1    8 1
   3    1   35 2
   4    2    3 1
   5    2    4 1
   6    2    5 1
   7    6    7 ar
   8    6   15 ar
   9    7    8 ar
  10    7   16 1
  11    8    9 ar
  12    9   10 ar
  13    9   17 1
  14   10   11 ar
  15   10   15 ar
  16   11   12 ar
  17   11   36 1
  18   12   13 ar
  19   12   27 1
  20   13   14 ar
  21   13   37 1
  22   14   15 ar
  23   14   38 1
  24   16   39 1
  25   16   40 1
  26   16   41 1
  27   17   18 ar
  28   17   22 ar
  29   18   19 ar
  30   18   42 1
  31   19   20 ar
  32   19   43 1
  33   20   21 ar
  34   20   23 1
  35   21   22 ar
  36   21   44 1
  37   22   45 1
  38   23   24 2
  39   23   25 2
  40   23   26 1
  41   26   46 1
  42   26   47 1
  43   26   48 1
  44   27   28 1
  45   27   31 1
  46   28   29 1
  47   28   49 1
  48   28   50 1
  49   29   30 1
  50   29   32 1
  51   29   51 1
  52   30   31 1
  53   30   52 1
  54   30   53 1
  55   31   54 1
  56   31   55 1
  57   32   33 1
  58   32   34 1
  59   33   56 1
  60   33   57 1
  61   33   58 1
  62   34   59 1
  63   34   60 1
  64   34   61 1

#	End of record

