#	Name: ASD03730631
#	Creating user name:	WinNT
#	Creation time:	15. 06. 2019 20:44

#	Modifying user name:	WinNT
#	Modification time:	15. 06. 2019 20:44

#	Program:	/corina/corina34_cracker 3.40 0067  02.08.2006

@<TRIPOS>MOLECULE
ASD03730631
  56   61    0    0    0
SMALL
NO_CHARGES


@<TRIPOS>ATOM
   1 O1            -0.2393     0.7734     4.6936 O.3     
   2 C2             0.0112    -0.6286     4.9055 C.3     
   3 O3             0.5149    -1.0821     3.6353 O.3     
   4 C4             1.0929     0.0128     3.0593 C.ar    
   5 C5             0.6266     1.1536     3.7086 C.ar    
   6 C6             1.9958     0.1301     2.0180 C.ar    
   7 C7             2.4401     1.3834     1.6078 C.ar    
   8 C8             1.9577     2.5167     2.2556 C.ar    
   9 C9             1.0639     2.4024     3.2999 C.ar    
  10 O10            3.3291     1.7154     0.6281 O.3     
  11 C11            2.5884     3.7012     1.5738 C.3     
  12 C12            3.1539     3.1021     0.2788 C.3     
  13 N13            2.0640     5.8995     1.9119 N.am    
  14 C14            1.5963     4.7941     1.2981 C.2     
  15 C15            3.6589     4.3379     2.4092 C.ar    
  16 C16            4.8360     3.8712     2.9781 C.ar    
  17 C17            5.6378     4.7376     3.7208 C.ar    
  18 C18            5.2539     6.0537     3.8846 C.ar    
  19 C19            4.0839     6.5170     3.3179 C.ar    
  20 C20            3.2728     5.6635     2.5721 C.ar    
  21 O21            0.5753     4.7009     0.6501 O.2     
  22 C22            1.3845     7.1972     1.8891 C.3     
  23 C23            0.4249     7.2914     3.0771 C.3     
  24 C24           -0.2848     8.6466     3.0532 C.3     
  25 C25           -1.2443     8.7408     4.2412 C.3     
  26 C26           -1.9540    10.0960     4.2173 C.3     
  27 C27            5.2396     2.4551     2.7970 C.ar    
  28 C28            4.8905     1.5096     3.7579 C.ar    
  29 C29            5.2735     0.1913     3.5768 C.ar    
  30 C30            5.9940    -0.1390     2.4390 C.ar    
  31 C31            6.3081     0.8521     1.5226 C.ar    
  32 N32            5.9255     2.0996     1.7181 N.ar    
  33 F33            7.0103     0.5359     0.4126 F       
  34 H34            0.7582    -0.7704     5.6864 H       
  35 H35           -0.9126    -1.1486     5.1589 H       
  36 H36            2.3586    -0.7570     1.5201 H       
  37 H37            0.7042     3.2893     3.8003 H       
  38 H38            4.1094     3.5611     0.0248 H       
  39 H39            2.4423     3.2083    -0.5400 H       
  40 H40            6.5549     4.3807     4.1656 H       
  41 H41            5.8734     6.7253     4.4604 H       
  42 H42            3.7945     7.5486     3.4538 H       
  43 H43            2.1236     7.9956     1.9548 H       
  44 H44            0.8233     7.2971     0.9600 H       
  45 H45           -0.3142     6.4930     3.0113 H       
  46 H46            0.9861     7.1914     4.0061 H       
  47 H47            0.4543     9.4450     3.1189 H       
  48 H48           -0.8459     8.7466     2.1241 H       
  49 H49           -1.9834     7.9424     4.1754 H       
  50 H50           -0.6832     8.6408     5.1703 H       
  51 H51           -1.2149    10.8944     4.2830 H       
  52 H52           -2.5152    10.1960     3.2882 H       
  53 H53           -2.6376    10.1631     5.0637 H       
  54 H54            4.3288     1.8008     4.6332 H       
  55 H55            5.0169    -0.5631     4.3058 H       
  56 H56            6.3077    -1.1583     2.2689 H       
@<TRIPOS>BOND
   1    1    2 1
   2    1    5 1
   3    2    3 1
   4    2   34 1
   5    2   35 1
   6    3    4 1
   7    4    5 ar
   8    4    6 ar
   9    5    9 ar
  10    6    7 ar
  11    6   36 1
  12    7    8 ar
  13    7   10 1
  14    8    9 ar
  15    8   11 1
  16    9   37 1
  17   10   12 1
  18   11   12 1
  19   11   14 1
  20   11   15 1
  21   12   38 1
  22   12   39 1
  23   13   14 am
  24   13   20 1
  25   13   22 1
  26   14   21 2
  27   15   16 ar
  28   15   20 ar
  29   16   17 ar
  30   16   27 1
  31   17   18 ar
  32   17   40 1
  33   18   19 ar
  34   18   41 1
  35   19   20 ar
  36   19   42 1
  37   22   23 1
  38   22   43 1
  39   22   44 1
  40   23   24 1
  41   23   45 1
  42   23   46 1
  43   24   25 1
  44   24   47 1
  45   24   48 1
  46   25   26 1
  47   25   49 1
  48   25   50 1
  49   26   51 1
  50   26   52 1
  51   26   53 1
  52   27   28 ar
  53   27   32 ar
  54   28   29 ar
  55   28   54 1
  56   29   30 ar
  57   29   55 1
  58   30   31 ar
  59   30   56 1
  60   31   32 ar
  61   31   33 1

#	End of record

