#	Name: ASD01811484
#	Creating user name:	WinNT
#	Creation time:	15. 06. 2019 19:26

#	Modifying user name:	WinNT
#	Modification time:	15. 06. 2019 19:26

#	Program:	/corina/corina34_cracker 3.40 0067  02.08.2006

@<TRIPOS>MOLECULE
ASD01811484
  69   74    0    0    0
SMALL
NO_CHARGES


@<TRIPOS>ATOM
   1 C1            -0.1553    14.9585    -5.5115 C.1     
   2 C2            -0.2452    13.8791    -4.5748 C.ar    
   3 C3            -0.4709    12.5768    -5.0251 C.ar    
   4 C4            -0.5564    11.5417    -4.1172 C.ar    
   5 C5            -0.4195    11.7917    -2.7633 C.ar    
   6 C6            -0.1961    13.0798    -2.3102 C.ar    
   7 C7            -0.1017    14.1233    -3.2075 C.ar    
   8 N8            -0.0841    15.8149    -6.2546 N.1     
   9 N9            -1.4138     9.4372     0.6114 N.am    
  10 C10           -0.0349     9.9429     0.5680 C.3     
  11 C11            0.0313    11.1102    -0.4218 C.3     
  12 C12           -0.5145    10.6558    -1.7775 C.3     
  13 C13           -1.9778    10.2343    -1.6249 C.3     
  14 C14           -2.0668     9.0571    -0.6486 C.3     
  15 F15            0.2366     9.5710    -2.2425 F       
  16 C16           -2.0652     9.3191     1.7853 C.2     
  17 C17           -1.3578     9.5938     3.0544 C.ar    
  18 C18           -1.9765    10.3476     4.0499 C.ar    
  19 C19           -1.3031    10.6016     5.2421 C.ar    
  20 C20           -0.0137    10.1004     5.4329 C.ar    
  21 C21            0.5938     9.3542     4.4426 C.ar    
  22 C22           -0.0703     9.0936     3.2603 C.ar    
  23 O23           -3.2343     8.9869     1.8009 O.2     
  24 C24           -4.5297    13.5359     7.8058 C.3     
  25 C25           -3.3681    12.6736     7.3855 C.2     
  26 C26           -2.3327    12.3573     8.2002 C.2     
  27 C27           -2.2308    12.8442     9.6257 C.3     
  28 C28           -3.2185    14.0065     9.7981 C.3     
  29 N29           -4.5362    13.6174     9.2767 N.3     
  30 C30           -1.9521    11.4013     6.3041 C.2     
  31 N31           -3.1353    12.0762     6.1866 N.pl3   
  32 N32           -1.4878    11.5842     7.5234 N.2     
  33 C33           -5.5812    14.5358     9.7485 C.3     
  34 C34            0.7166    10.3748     6.7222 C.3     
  35 C35            0.9499     9.1183     7.5776 C.3     
  36 C36            2.3447     9.6857     7.8898 C.3     
  37 C37            2.2439    10.4526     6.5607 C.3     
  38 H38           -0.5787    12.3804    -6.0816 H       
  39 H39           -0.7310    10.5339    -4.4641 H       
  40 H40           -0.0905    13.2679    -1.2520 H       
  41 H41            0.0775    15.1275    -2.8529 H       
  42 H42            0.2593    10.2873     1.5594 H       
  43 H43            0.6356     9.1481     0.2411 H       
  44 H44           -0.5691    11.9392    -0.0473 H       
  45 H45            1.0663    11.4322    -0.5358 H       
  46 H46           -2.5593    11.0716    -1.2390 H       
  47 H47           -2.3727     9.9330    -2.5951 H       
  48 H48           -1.5620     8.1901    -1.0747 H       
  49 H49           -3.1132     8.8171    -0.4600 H       
  50 H50           -2.9736    10.7333     3.8974 H       
  51 H51            1.5911     8.9689     4.5952 H       
  52 H52            0.4087     8.5056     2.4915 H       
  53 H53           -4.4181    14.5344     7.3830 H       
  54 H54           -5.4622    13.0912     7.4583 H       
  55 H55           -2.4886    12.0365    10.3107 H       
  56 H56           -1.2165    13.1892     9.8261 H       
  57 H57           -3.3057    14.2545    10.8559 H       
  58 H58           -2.8542    14.8761     9.2511 H       
  59 H59           -3.7001    12.1204     5.3993 H       
  60 H60           -6.5474    14.2195     9.3555 H       
  61 H61           -5.6105    14.5238    10.8380 H       
  62 H62           -5.3609    15.5455     9.4021 H       
  63 H63            0.2920    11.2098     7.2796 H       
  64 H64            0.2985     9.0564     8.4493 H       
  65 H65            0.9736     8.1947     6.9993 H       
  66 H66            2.3666    10.3327     8.7667 H       
  67 H67            3.1309     8.9308     7.8997 H       
  68 H68            2.6214     9.8938     5.7044 H       
  69 H69            2.6372    11.4679     6.6115 H       
@<TRIPOS>BOND
   1    1    2 1
   2    1    8 3
   3    2    3 ar
   4    2    7 ar
   5    3    4 ar
   6    3   38 1
   7    4    5 ar
   8    4   39 1
   9    5    6 ar
  10    5   12 1
  11    6    7 ar
  12    6   40 1
  13    7   41 1
  14    9   10 1
  15    9   14 1
  16    9   16 am
  17   10   11 1
  18   10   42 1
  19   10   43 1
  20   11   12 1
  21   11   44 1
  22   11   45 1
  23   12   13 1
  24   12   15 1
  25   13   14 1
  26   13   46 1
  27   13   47 1
  28   14   48 1
  29   14   49 1
  30   16   17 1
  31   16   23 2
  32   17   18 ar
  33   17   22 ar
  34   18   19 ar
  35   18   50 1
  36   19   20 ar
  37   19   30 1
  38   20   21 ar
  39   20   34 1
  40   21   22 ar
  41   21   51 1
  42   22   52 1
  43   24   25 1
  44   24   29 1
  45   24   53 1
  46   24   54 1
  47   25   26 2
  48   25   31 1
  49   26   27 1
  50   26   32 1
  51   27   28 1
  52   27   55 1
  53   27   56 1
  54   28   29 1
  55   28   57 1
  56   28   58 1
  57   29   33 1
  58   30   31 1
  59   30   32 2
  60   31   59 1
  61   33   60 1
  62   33   61 1
  63   33   62 1
  64   34   35 1
  65   34   37 1
  66   34   63 1
  67   35   36 1
  68   35   64 1
  69   35   65 1
  70   36   37 1
  71   36   66 1
  72   36   67 1
  73   37   68 1
  74   37   69 1

#	End of record

