#	Name: ASD02500109
#	Creating user name:	WinNT
#	Creation time:	15. 06. 2019 20:22

#	Modifying user name:	WinNT
#	Modification time:	15. 06. 2019 20:22

#	Program:	/corina/corina34_cracker 3.40 0067  02.08.2006

@<TRIPOS>MOLECULE
ASD02500109
  65   69    0    0    0
SMALL
NO_CHARGES


@<TRIPOS>ATOM
   1 N1             1.8285     4.0983    -0.8522 N.ar    
   2 C2             2.7591     3.8576     0.0392 C.ar    
   3 C3             3.9368     3.1909    -0.2921 C.ar    
   4 C4             4.1439     2.7694    -1.5746 C.ar    
   5 C5             3.1422     3.0292    -2.5290 C.ar    
   6 C6             3.2846     2.6268    -3.8664 C.ar    
   7 C7             2.2930     2.8972    -4.7597 C.ar    
   8 C8             1.1383     3.5688    -4.3643 C.ar    
   9 C9             0.9674     3.9733    -3.0760 C.ar    
  10 C10            1.9685     3.7126    -2.1245 C.ar    
  11 S11           -0.5028     4.8215    -2.6030 S.o2    
  12 O12           -0.0866     5.9894    -1.9087 O.2     
  13 O13           -1.3339     4.8570    -3.7551 O.2     
  14 N14           -1.2820     3.8706    -1.4935 N.am    
  15 C15           -1.8268     2.6505    -1.8831 C.ar    
  16 C16           -2.9918     2.1831    -1.2762 C.ar    
  17 C17           -3.5326     0.9758    -1.6603 C.ar    
  18 C18           -2.9115     0.2200    -2.6596 C.ar    
  19 C19           -1.7440     0.6922    -3.2652 C.ar    
  20 C20           -1.2111     1.9024    -2.8812 C.ar    
  21 C21           -3.4873    -1.0737    -3.0733 C.2     
  22 O22           -3.5118    -1.3799    -4.2498 O.2     
  23 N23           -3.9864    -1.9161    -2.1472 N.am    
  24 C24           -4.4305    -3.1869    -2.5552 C.3     
  25 C25           -5.9236    -3.3836    -2.1887 C.3     
  26 N26           -6.0264    -3.5565    -0.7541 N.3     
  27 C27           -6.3039    -2.3232     0.0110 C.3     
  28 C28           -5.4876    -1.1182    -0.4533 C.3     
  29 C29           -4.0420    -1.4746    -0.7387 C.3     
  30 C30           -6.9457    -4.5624    -0.4348 C.ar    
  31 C31           -6.5171    -5.7222     0.2081 C.ar    
  32 C32           -7.4311    -6.7138     0.5220 C.ar    
  33 C33           -8.7660    -6.5526     0.1972 C.ar    
  34 C34           -9.1919    -5.4028    -0.4407 C.ar    
  35 C35           -8.2866    -4.4052    -0.7521 C.ar    
  36 O36           -5.2041    -5.8799     0.5260 O.3     
  37 C37           -4.8372    -7.0942     1.1840 C.3     
  38 F38           -3.5902     2.9145    -0.3107 F       
  39 H39            2.6090     4.1851     1.0573 H       
  40 H40            4.6855     3.0079     0.4645 H       
  41 H41            5.0511     2.2516    -1.8490 H       
  42 H42            4.1755     2.1060    -4.1851 H       
  43 H43            2.4033     2.5872    -5.7884 H       
  44 H44            0.3664     3.7721    -5.0918 H       
  45 H45           -1.3588     4.1640    -0.5721 H       
  46 H46           -4.4348     0.6134    -1.1901 H       
  47 H47           -1.2625     0.1104    -4.0371 H       
  48 H48           -0.3115     2.2693    -3.3527 H       
  49 H49           -4.3096    -3.2808    -3.6344 H       
  50 H50           -3.8344    -3.9527    -2.0590 H       
  51 H51           -6.4941    -2.5063    -2.4935 H       
  52 H52           -6.3108    -4.2690    -2.6929 H       
  53 H53           -7.3632    -2.0845    -0.0846 H       
  54 H54           -6.0848    -2.5086     1.0625 H       
  55 H55           -5.9385    -0.7148    -1.3600 H       
  56 H56           -5.5152    -0.3532     0.3226 H       
  57 H57           -3.7196    -2.2828    -0.0822 H       
  58 H58           -3.4050    -0.6016    -0.5967 H       
  59 H59           -7.1016    -7.6136     1.0202 H       
  60 H60           -9.4773    -7.3273     0.4426 H       
  61 H61          -10.2350    -5.2816    -0.6930 H       
  62 H62           -8.6228    -3.5058    -1.2467 H       
  63 H63           -3.7650    -7.0917     1.3798 H       
  64 H64           -5.3785    -7.1744     2.1267 H       
  65 H65           -5.0884    -7.9426     0.5474 H       
@<TRIPOS>BOND
   1    1    2 ar
   2    1   10 ar
   3    2    3 ar
   4    2   39 1
   5    3    4 ar
   6    3   40 1
   7    4    5 ar
   8    4   41 1
   9    5    6 ar
  10    5   10 ar
  11    6    7 ar
  12    6   42 1
  13    7    8 ar
  14    7   43 1
  15    8    9 ar
  16    8   44 1
  17    9   10 ar
  18    9   11 1
  19   11   12 2
  20   11   13 2
  21   11   14 am
  22   14   15 1
  23   14   45 1
  24   15   16 ar
  25   15   20 ar
  26   16   17 ar
  27   16   38 1
  28   17   18 ar
  29   17   46 1
  30   18   19 ar
  31   18   21 1
  32   19   20 ar
  33   19   47 1
  34   20   48 1
  35   21   22 2
  36   21   23 am
  37   23   24 1
  38   23   29 1
  39   24   25 1
  40   24   49 1
  41   24   50 1
  42   25   26 1
  43   25   51 1
  44   25   52 1
  45   26   27 1
  46   26   30 1
  47   27   28 1
  48   27   53 1
  49   27   54 1
  50   28   29 1
  51   28   55 1
  52   28   56 1
  53   29   57 1
  54   29   58 1
  55   30   31 ar
  56   30   35 ar
  57   31   32 ar
  58   31   36 1
  59   32   33 ar
  60   32   59 1
  61   33   34 ar
  62   33   60 1
  63   34   35 ar
  64   34   61 1
  65   35   62 1
  66   36   37 1
  67   37   63 1
  68   37   64 1
  69   37   65 1

#	End of record

