#	Name: ASD01120246
#	Creating user name:	WinNT
#	Creation time:	15. 06. 2019 18:59

#	Modifying user name:	WinNT
#	Modification time:	15. 06. 2019 18:59

#	Program:	/corina/corina34_cracker 3.40 0067  02.08.2006

@<TRIPOS>MOLECULE
ASD01120246
  56   58    0    0    0
SMALL
NO_CHARGES


@<TRIPOS>ATOM
   1 C1            -0.0702    -1.4019     3.3866 C.ar    
   2 C2            -0.6954    -2.5611     3.8058 C.ar    
   3 C3            -1.9901    -2.8324     3.4039 C.ar    
   4 C4            -2.6594    -1.9442     2.5833 C.ar    
   5 C5            -2.0344    -0.7843     2.1646 C.ar    
   6 C6            -0.7416    -0.5109     2.5699 C.ar    
   7 S7            -2.8874     0.3477     1.1180 S.o2    
   8 N8            -3.6797     1.4209     2.0992 N.am    
   9 C9            -2.9773     2.2574     2.8888 C.2     
  10 N10           -3.6221     3.1309     3.6874 N.am    
  11 O11           -1.8890     1.0917     0.4333 O.2     
  12 O12           -3.8924    -0.4026     0.4500 O.2     
  13 O13           -1.7619     2.2240     2.8806 O.2     
  14 C14            0.0869     2.5192    11.4782 C.ar    
  15 C15            1.4325     2.3049    11.7102 C.ar    
  16 C16            2.3087     3.3740    11.7341 C.ar    
  17 C17            1.8392     4.6572    11.5258 C.ar    
  18 C18            0.4932     4.8716    11.2937 C.ar    
  19 C19           -0.3819     3.8021    11.2642 C.ar    
  20 S20           -0.1054     6.5073    11.0282 S.o2    
  21 N21           -0.0299     6.7987     9.3997 N.am    
  22 C22           -0.7984     6.0871     8.5515 C.2     
  23 N23           -0.7370     6.3242     7.2262 N.am    
  24 O24           -1.4848     6.4901    11.3692 O.2     
  25 O25            0.8347     7.3823    11.6364 O.2     
  26 O26           -1.5472     5.2312     8.9819 O.2     
  27 C27           -0.8682     1.3538    11.4522 C.3     
  28 C28            1.3411    -1.1063     3.8246 C.3     
  29 C29           -1.4624     5.5208     6.3363 C.ar    
  30 C30           -2.7109     5.0341     6.7002 C.ar    
  31 C31           -3.4256     4.2425     5.8235 C.ar    
  32 C32           -2.8964     3.9339     4.5774 C.ar    
  33 C33           -1.6480     4.4207     4.2135 C.ar    
  34 C34           -0.9355     5.2166     5.0882 C.ar    
  35 H35           -0.1724    -3.2551     4.4471 H       
  36 H36           -2.4784    -3.7385     3.7310 H       
  37 H37           -3.6706    -2.1565     2.2688 H       
  38 H38           -0.2533     0.3952     2.2429 H       
  39 H39           -4.6493     1.4476     2.1057 H       
  40 H40           -4.5885     3.2036     3.6460 H       
  41 H41            1.7993     1.3023    11.8733 H       
  42 H42            3.3600     3.2066    11.9161 H       
  43 H43            2.5235     5.4924    11.5452 H       
  44 H44           -1.4333     3.9696    11.0828 H       
  45 H45            0.5674     7.4815     9.0564 H       
  46 H46           -0.1905     7.0510     6.8883 H       
  47 H47           -1.2557     1.1792    12.4559 H       
  48 H48           -1.6946     1.5763    10.7773 H       
  49 H49           -0.3450     0.4629    11.1047 H       
  50 H50            2.0413    -1.5281     3.1035 H       
  51 H51            1.4851    -0.0273     3.8824 H       
  52 H52            1.5178    -1.5495     4.8046 H       
  53 H53           -3.1227     5.2744     7.6693 H       
  54 H54           -4.3964     3.8634     6.1069 H       
  55 H55           -1.2362     4.1803     3.2444 H       
  56 H56            0.0355     5.5952     4.8051 H       
@<TRIPOS>BOND
   1    1    2 ar
   2    1   28 1
   3    1    6 ar
   4    2    3 ar
   5    2   35 1
   6    3    4 ar
   7    3   36 1
   8    4    5 ar
   9    4   37 1
  10    5    6 ar
  11    5    7 1
  12    6   38 1
  13    7    8 am
  14    7   11 2
  15    7   12 2
  16    8    9 am
  17    8   39 1
  18    9   10 am
  19    9   13 2
  20   10   32 1
  21   10   40 1
  22   14   15 ar
  23   14   27 1
  24   14   19 ar
  25   15   16 ar
  26   15   41 1
  27   16   17 ar
  28   16   42 1
  29   17   18 ar
  30   17   43 1
  31   18   19 ar
  32   18   20 1
  33   19   44 1
  34   20   21 am
  35   20   24 2
  36   20   25 2
  37   21   22 am
  38   21   45 1
  39   22   23 am
  40   22   26 2
  41   23   29 1
  42   23   46 1
  43   27   47 1
  44   27   48 1
  45   27   49 1
  46   28   50 1
  47   28   51 1
  48   28   52 1
  49   29   30 ar
  50   29   34 ar
  51   30   31 ar
  52   30   53 1
  53   31   32 ar
  54   31   54 1
  55   32   33 ar
  56   33   34 ar
  57   33   55 1
  58   34   56 1

#	End of record

