#	Name: ASD09116194
#	Creating user name:	WinNT
#	Creation time:	15. 06. 2019 21:21

#	Modifying user name:	WinNT
#	Modification time:	15. 06. 2019 21:21

#	Program:	/corina/corina34_cracker 3.40 0067  02.08.2006

@<TRIPOS>MOLECULE
ASD09116194
  68   73    0    0    0
SMALL
NO_CHARGES


@<TRIPOS>ATOM
   1 N1            -0.0266     1.4808     0.1054 N.2     
   2 C2            -0.0140     0.0097     0.1915 C.3     
   3 C3             1.2224     1.8593     0.0815 C.2     
   4 N4             2.0841     0.8236     0.1408 N.2     
   5 C5             1.4646    -0.3258     0.2090 C.2     
   6 N6             1.6190     3.1792     0.0037 N.pl3   
   7 C7             2.9769     3.5091     0.0982 C.ar    
   8 C8             3.4714     4.6165    -0.5781 C.ar    
   9 C9             3.8282     2.7324     0.8728 C.ar    
  10 C10            5.1669     3.0583     0.9655 C.ar    
  11 C11            5.6613     4.1613     0.2850 C.ar    
  12 C12            4.8104     4.9411    -0.4845 C.ar    
  13 N13            2.0277    -1.5619     0.2809 N.pl3   
  14 C14           -0.6795    -0.4542     1.4615 C.ar    
  15 C15           -1.5566    -1.5150     1.4477 C.ar    
  16 N16           -0.4277     0.1479     2.6161 N.ar    
  17 C17           -1.0112    -0.2571     3.7354 C.ar    
  18 N18           -1.8659    -1.2744     3.7512 N.ar    
  19 C19           -2.1526    -1.9148     2.6400 C.ar    
  20 C20           -3.0682    -3.0952     2.3173 C.3     
  21 C21           -2.0879    -4.2630     1.9788 C.3     
  22 C22           -1.4202    -3.8212     0.6544 C.3     
  23 C23           -2.0746    -2.4348     0.3442 C.3     
  24 C24           -3.5340    -2.6929     0.8692 C.3     
  25 O25            6.9797     4.4816     0.3767 O.3     
  26 C26            7.4203     5.6303    -0.3502 C.3     
  27 C27            8.9206     5.8307    -0.1265 C.3     
  28 N28            9.6574     4.6989    -0.7044 N.3     
  29 C29           11.1073     4.9658    -0.7217 C.3     
  30 C30           11.7920     3.8224     0.0561 C.3     
  31 C31           10.7491     2.6762    -0.0173 C.3     
  32 C32            9.4158     3.4605     0.0663 C.3     
  33 S33           -0.6428     0.5760     5.2437 S.3     
  34 C34            0.5282     1.8169     4.6395 C.3     
  35 C35            0.9999     2.6847     5.8079 C.3     
  36 H36           -0.5005    -0.4305    -0.6790 H       
  37 H37            0.9573     3.8782    -0.1165 H       
  38 H38            2.8091     5.2235    -1.1775 H       
  39 H39            3.4433     1.8737     1.4030 H       
  40 H40            5.8291     2.4544     1.5682 H       
  41 H41            5.1961     5.7996    -1.0143 H       
  42 H42            2.9932    -1.6555     0.2849 H       
  43 H43            1.4638    -2.3497     0.3281 H       
  44 H44           -3.8458    -3.3158     3.0486 H       
  45 H45           -1.3408    -4.3745     2.7646 H       
  46 H46           -2.6370    -5.1940     1.8377 H       
  47 H47           -0.3434    -3.7152     0.7863 H       
  48 H48           -1.6403    -4.5336    -0.1406 H       
  49 H49           -1.9677    -2.0693    -0.6771 H       
  50 H50           -4.0227    -3.5160     0.3479 H       
  51 H51           -4.1420    -1.7883     0.8658 H       
  52 H52            7.2278     5.4835    -1.4130 H       
  53 H53            6.8801     6.5103    -0.0012 H       
  54 H54            9.2393     6.7554    -0.6076 H       
  55 H55            9.1239     5.8887     0.9428 H       
  56 H56           11.4689     4.9834    -1.7499 H       
  57 H57           11.3145     5.9200    -0.2372 H       
  58 H58           12.7223     3.5286    -0.4300 H       
  59 H59           11.9720     4.1139     1.0909 H       
  60 H60           10.8267     2.1376    -0.9618 H       
  61 H61           10.8558     1.9964     0.8280 H       
  62 H62            9.1802     3.6989     1.1034 H       
  63 H63            8.6078     2.8845    -0.3846 H       
  64 H64            1.3858     1.3178     4.1882 H       
  65 H65            0.0398     2.4449     3.8944 H       
  66 H66            0.1423     3.1838     6.2592 H       
  67 H67            1.4883     2.0566     6.5530 H       
  68 H68            1.7051     3.4320     5.4440 H       
@<TRIPOS>BOND
   1    1    2 1
   2    1    3 2
   3    2   14 1
   4    2    5 1
   5    2   36 1
   6    3    4 1
   7    3    6 1
   8    4    5 2
   9    5   13 1
  10    6    7 1
  11    6   37 1
  12    7    8 ar
  13    7    9 ar
  14    8   12 ar
  15    8   38 1
  16    9   10 ar
  17    9   39 1
  18   10   11 ar
  19   10   40 1
  20   11   12 ar
  21   11   25 1
  22   12   41 1
  23   13   42 1
  24   13   43 1
  25   14   15 ar
  26   14   16 ar
  27   15   19 ar
  28   15   23 1
  29   16   17 ar
  30   17   18 ar
  31   17   33 1
  32   18   19 ar
  33   19   20 1
  34   20   21 1
  35   20   24 1
  36   20   44 1
  37   21   22 1
  38   21   45 1
  39   21   46 1
  40   22   23 1
  41   22   47 1
  42   22   48 1
  43   23   24 1
  44   23   49 1
  45   24   50 1
  46   24   51 1
  47   25   26 1
  48   26   27 1
  49   26   52 1
  50   26   53 1
  51   27   28 1
  52   27   54 1
  53   27   55 1
  54   28   29 1
  55   28   32 1
  56   29   30 1
  57   29   56 1
  58   29   57 1
  59   30   31 1
  60   30   58 1
  61   30   59 1
  62   31   32 1
  63   31   60 1
  64   31   61 1
  65   32   62 1
  66   32   63 1
  67   33   34 1
  68   34   35 1
  69   34   64 1
  70   34   65 1
  71   35   66 1
  72   35   67 1
  73   35   68 1

#	End of record

