#	Name: ASD03091243
#	Creating user name:	WinNT
#	Creation time:	15. 06. 2019 20:30

#	Modifying user name:	WinNT
#	Modification time:	15. 06. 2019 20:30

#	Program:	/corina/corina34_cracker 3.40 0067  02.08.2006

@<TRIPOS>MOLECULE
ASD03091243
  48   52    0    0    0
SMALL
NO_CHARGES


@<TRIPOS>ATOM
   1 N1            -0.0157     1.3034     0.0083 N.2     
   2 C2             0.0021    -0.0037     0.0375 C.2     
   3 N3             1.1591    -0.7348     0.0633 N.am    
   4 C4             2.3616    -0.1138     0.0588 C.2     
   5 C5             2.3659     1.3564     0.0256 C.ar    
   6 C6             3.5519     2.0869     0.0189 C.ar    
   7 C7             3.4971     3.4702    -0.0123 C.ar    
   8 C8             2.2670     4.1278    -0.0365 C.ar    
   9 C9             1.0965     3.4254    -0.0304 C.ar    
  10 C10            1.1219     2.0276     0.0010 C.ar    
  11 O11            3.4003    -0.7481     0.0818 O.2     
  12 C12           -1.2877    -0.7258     0.0436 C.ar    
  13 C13           -2.4887    -0.0151     0.0184 C.ar    
  14 C14           -3.6907    -0.6965     0.0243 C.ar    
  15 C15           -3.7039    -2.0820     0.0551 C.ar    
  16 C16           -2.5162    -2.7902     0.0801 C.ar    
  17 C17           -1.3094    -2.1211     0.0687 C.ar    
  18 F18           -4.8547    -0.0111     0.0005 F       
  19 N19            7.4092     4.9773    -0.8813 N.3     
  20 C20            7.1449     4.1121     0.2784 C.3     
  21 C21            5.8528     3.3339     0.0847 C.3     
  22 N22            4.6813     4.2121    -0.0192 N.3     
  23 C23            4.7692     5.0527    -1.2215 C.3     
  24 C24            5.3908     6.3995    -0.8833 C.3     
  25 C25            6.8833     6.3270    -0.6315 C.3     
  26 C26            7.0228     4.4522    -2.1734 C.3     
  27 C27            5.5166     4.2961    -2.3043 C.3     
  28 H28            1.1169    -1.7036     0.0851 H       
  29 H29            4.5049     1.5793     0.0384 H       
  30 H30            2.2404     5.2072    -0.0601 H       
  31 H31            0.1518     3.9486    -0.0490 H       
  32 H32           -2.4786     1.0646    -0.0052 H       
  33 H33           -4.6455    -2.6109     0.0600 H       
  34 H34           -2.5332    -3.8698     0.1041 H       
  35 H35           -0.3831    -2.6762     0.0834 H       
  36 H36            7.9712     3.4116     0.3995 H       
  37 H37            7.0626     4.7275     1.1742 H       
  38 H38            5.9312     2.7406    -0.8263 H       
  39 H39            5.7156     2.6611     0.9313 H       
  40 H40            3.7566     5.2288    -1.5844 H       
  41 H41            5.2088     7.0859    -1.7102 H       
  42 H42            4.9047     6.7946     0.0088 H       
  43 H43            7.0832     6.6007     0.4044 H       
  44 H44            7.3898     7.0336    -1.2890 H       
  45 H45            7.3768     5.1296    -2.9505 H       
  46 H46            7.4926     3.4789    -2.3143 H       
  47 H47            5.2629     3.2382    -2.2368 H       
  48 H48            5.2049     4.6721    -3.2788 H       
@<TRIPOS>BOND
   1    1    2 2
   2    1   10 1
   3    2    3 1
   4    2   12 1
   5    3    4 am
   6    3   28 1
   7    4    5 1
   8    4   11 2
   9    5    6 ar
  10    5   10 ar
  11    6    7 ar
  12    6   29 1
  13    7    8 ar
  14    7   22 1
  15    8    9 ar
  16    8   30 1
  17    9   10 ar
  18    9   31 1
  19   12   13 ar
  20   12   17 ar
  21   13   14 ar
  22   13   32 1
  23   14   15 ar
  24   14   18 1
  25   15   16 ar
  26   15   33 1
  27   16   17 ar
  28   16   34 1
  29   17   35 1
  30   19   20 1
  31   19   25 1
  32   19   26 1
  33   20   21 1
  34   20   36 1
  35   20   37 1
  36   21   22 1
  37   21   38 1
  38   21   39 1
  39   22   23 1
  40   23   24 1
  41   23   27 1
  42   23   40 1
  43   24   25 1
  44   24   41 1
  45   24   42 1
  46   25   43 1
  47   25   44 1
  48   26   27 1
  49   26   45 1
  50   26   46 1
  51   27   47 1
  52   27   48 1

#	End of record

