#	Name: ASD02320026
#	Creating user name:	WinNT
#	Creation time:	15. 06. 2019 20:20

#	Modifying user name:	WinNT
#	Modification time:	15. 06. 2019 20:20

#	Program:	/corina/corina34_cracker 3.40 0067  02.08.2006

@<TRIPOS>MOLECULE
ASD02320026
  65   67    0    0    0
SMALL
NO_CHARGES


@<TRIPOS>ATOM
   1 C1            -1.2238    -1.3667    -1.3445 C.ar    
   2 C2            -1.4811    -2.2693    -0.3170 C.ar    
   3 C3            -2.5045    -2.0119     0.5770 C.ar    
   4 C4            -3.2743    -0.8628     0.4563 C.ar    
   5 C5            -3.0280     0.0260    -0.5667 C.ar    
   6 C6            -1.9929    -0.2238    -1.4599 C.ar    
   7 C7            -4.3557    -0.6318     1.4821 C.3     
   8 N8            -5.2242     0.4668     1.0464 N.am    
   9 C9            -4.5724     1.6710     0.5057 C.3     
  10 C10           -3.8433     1.2750    -0.7771 C.3     
  11 C11           -6.5660     0.3773     1.1369 C.2     
  12 O12           -7.2574     1.3360     0.8654 O.2     
  13 C13          -10.8769    -1.8956     2.0565 C.ar    
  14 C14          -11.6087    -2.0821     0.8929 C.ar    
  15 C15          -11.5217    -1.5656     3.2324 C.ar    
  16 C16          -12.9011    -1.4207     3.2499 C.ar    
  17 C17          -13.6328    -1.6072     2.0867 C.ar    
  18 C18          -12.9877    -1.9373     0.9104 C.ar    
  19 C19           -5.6112     2.7188     0.1990 C.2     
  20 O20           -6.3849     2.5533    -0.7142 O.2     
  21 O21           -5.6769     3.8360     0.9402 O.3     
  22 Na22          -7.0823     5.1594     0.4570 Du      
  23 O23           -0.7316    -3.3972    -0.1930 O.3     
  24 S24            0.4999    -3.2287     0.6854 S.o2    
  25 O25            1.2606    -4.4205     0.5429 O.2     
  26 O26            1.0198    -1.9365     0.4040 O.2     
  27 O27            0.0216    -3.1943     2.1299 O.3     
  28 Na28          -0.5079    -4.9724     2.8498 Du      
  29 O29          -10.9738    -2.4066    -0.2650 O.3     
  30 S30          -10.8222    -3.9043    -0.4893 S.o2    
  31 O31           -9.9751    -4.0571    -1.6199 O.2     
  32 O32          -10.5336    -4.4730     0.7806 O.2     
  33 O33          -12.1870    -4.4388    -0.8994 O.3     
  34 Na34         -12.7002    -3.9973    -2.7707 Du      
  35 O35           -0.2171    -1.6051    -2.2272 O.3     
  36 S36           -0.6440    -2.3995    -3.4533 S.o2    
  37 O37            0.5479    -2.7267    -4.1543 O.2     
  38 O38           -1.5699    -3.3758    -2.9964 O.2     
  39 O39           -1.4260    -1.4535    -4.3532 O.3     
  40 Na40          -0.2908    -0.1466    -5.3348 Du      
  41 C41           -7.2071    -0.9141     1.5755 C.3     
  42 C42           -8.7279    -0.7481     1.5935 C.3     
  43 C43           -9.3789    -2.0591     2.0388 C.3     
  44 O44          -13.5361    -1.0963     4.4078 O.3     
  45 S45          -13.6871     0.4015     4.6323 S.o2    
  46 O46          -14.1785     0.5613     5.9560 O.2     
  47 O47          -12.4828     0.9996     4.1728 O.2     
  48 O48          -14.7901     0.8873     3.7028 O.3     
  49 Na49         -16.6248     0.3996     4.2997 Du      
  50 H50           -2.7066    -2.7106     1.3753 H       
  51 H51           -1.7935     0.4769    -2.2572 H       
  52 H52           -4.9484    -1.5397     1.5949 H       
  53 H53           -3.8997    -0.3761     2.4385 H       
  54 H54           -3.8578     2.0605     1.2308 H       
  55 H55           -3.1827     2.0876    -1.0795 H       
  56 H56           -4.5751     1.0968    -1.5650 H       
  57 H57          -10.9519    -1.4208     4.1384 H       
  58 H58          -14.7068    -1.4948     2.1004 H       
  59 H59          -13.5576    -2.0829     0.0046 H       
  60 H60           -6.9365    -1.7086     0.8802 H       
  61 H61           -6.8579    -1.1718     2.5754 H       
  62 H62           -8.9985     0.0465     2.2889 H       
  63 H63           -9.0771    -0.4903     0.5936 H       
  64 H64           -9.0297    -2.3169     3.0387 H       
  65 H65           -9.1083    -2.8537     1.3434 H       
@<TRIPOS>BOND
   1    1    2 ar
   2    1   35 1
   3    1    6 ar
   4    2    3 ar
   5    2   23 1
   6    3    4 ar
   7    3   50 1
   8    4    5 ar
   9    4    7 1
  10    5    6 ar
  11    5   10 1
  12    6   51 1
  13    7    8 1
  14    7   52 1
  15    7   53 1
  16    8    9 1
  17    8   11 am
  18    9   10 1
  19    9   19 1
  20    9   54 1
  21   10   55 1
  22   10   56 1
  23   11   12 2
  24   11   41 1
  25   13   14 ar
  26   13   15 ar
  27   13   43 1
  28   14   29 1
  29   14   18 ar
  30   15   16 ar
  31   15   57 1
  32   16   17 ar
  33   16   44 1
  34   17   18 ar
  35   17   58 1
  36   18   59 1
  37   19   20 2
  38   19   21 1
  39   21   22 1
  40   23   24 1
  41   24   25 2
  42   24   26 2
  43   24   27 1
  44   27   28 1
  45   29   30 1
  46   30   31 2
  47   30   32 2
  48   30   33 1
  49   33   34 1
  50   35   36 1
  51   36   37 2
  52   36   38 2
  53   36   39 1
  54   39   40 1
  55   41   42 1
  56   41   60 1
  57   41   61 1
  58   42   43 1
  59   42   62 1
  60   42   63 1
  61   43   64 1
  62   43   65 1
  63   44   45 1
  64   45   46 2
  65   45   47 2
  66   45   48 1
  67   48   49 1

#	End of record

