#	Name: ASD02198103
#	Creating user name:	WinNT
#	Creation time:	15. 06. 2019 20:18

#	Modifying user name:	WinNT
#	Modification time:	15. 06. 2019 20:18

#	Program:	/corina/corina34_cracker 3.40 0067  02.08.2006

@<TRIPOS>MOLECULE
ASD02198103
  44   46    0    0    0
SMALL
NO_CHARGES


@<TRIPOS>ATOM
   1 C1            -0.0187     1.3477    -0.2631 C.2     
   2 C2             0.0073    -0.0300    -0.2121 C.2     
   3 C3            -1.1767    -0.8348    -0.2436 C.1     
   4 S4             1.5603     1.9881    -0.2060 S.3     
   5 C5             2.2770     0.3874    -0.1119 C.2     
   6 C6             1.2898    -0.5684    -0.1275 C.2     
   7 C7             3.6583     0.1228    -0.0326 C.2     
   8 C8             4.6305     1.2297    -0.1475 C.ar    
   9 O9             4.0519    -1.0200     0.1308 O.2     
  10 N10            1.5439    -1.9299    -0.0651 N.pl3   
  11 N11           -1.1642     2.1034    -0.3538 N.pl3   
  12 N12           -2.1160    -1.4733    -0.2686 N.1     
  13 C13            5.2814     1.7121     0.9893 C.ar    
  14 C14           -1.0756     3.5650    -0.4015 C.3     
  15 C15            6.1902     2.7485     0.8746 C.ar    
  16 C16            6.4562     3.3096    -0.3678 C.ar    
  17 C17            5.8159     2.8381    -1.4972 C.ar    
  18 C18            4.9075     1.7961    -1.3983 C.ar    
  19 C19           -0.9600     4.0407    -1.8353 C.2     
  20 O20            6.8247     3.2197     1.9813 O.3     
  21 C21            7.7507     4.2913     1.7914 C.3     
  22 O22            4.2791     1.3331    -2.5094 O.3     
  23 C23            4.6018     1.9669    -3.7488 C.3     
  24 C24           -2.3846     4.2010     0.1163 C.3     
  25 C25           -2.8990     4.9862    -1.1092 C.3     
  26 O26           -2.1821     4.4230    -2.2489 O.3     
  27 O27            0.0532     4.0717    -2.4928 O.2     
  28 H28            2.4575    -2.2506    -0.0068 H       
  29 H29            0.8081    -2.5618    -0.0797 H       
  30 H30           -2.0307     1.6687    -0.3862 H       
  31 H31            5.0756     1.2773     1.9562 H       
  32 H32           -0.2258     3.9128     0.1859 H       
  33 H33            7.1668     4.1186    -0.4512 H       
  34 H34            6.0272     3.2793    -2.4601 H       
  35 H35            7.2312     5.1490     1.3642 H       
  36 H36            8.1849     4.5707     2.7513 H       
  37 H37            8.5424     3.9716     1.1138 H       
  38 H38            4.0317     1.5025    -4.5535 H       
  39 H39            4.3521     3.0263    -3.6911 H       
  40 H40            5.6677     1.8551    -3.9473 H       
  41 H41           -3.0985     3.4305     0.4076 H       
  42 H42           -2.1825     4.8751     0.9487 H       
  43 H43           -3.9727     4.8414    -1.2282 H       
  44 H44           -2.6686     6.0464    -1.0034 H       
@<TRIPOS>BOND
   1    1    2 2
   2    1    4 1
   3    1   11 1
   4    2    3 1
   5    2    6 1
   6    3   12 3
   7    4    5 1
   8    5    6 2
   9    5    7 1
  10    6   10 1
  11    7    8 1
  12    7    9 2
  13    8   13 ar
  14    8   18 ar
  15   10   28 1
  16   10   29 1
  17   11   14 1
  18   11   30 1
  19   13   15 ar
  20   13   31 1
  21   14   24 1
  22   14   19 1
  23   14   32 1
  24   15   16 ar
  25   15   20 1
  26   16   17 ar
  27   16   33 1
  28   17   18 ar
  29   17   34 1
  30   18   22 1
  31   19   27 2
  32   19   26 1
  33   20   21 1
  34   21   35 1
  35   21   36 1
  36   21   37 1
  37   22   23 1
  38   23   38 1
  39   23   39 1
  40   23   40 1
  41   24   25 1
  42   24   41 1
  43   24   42 1
  44   25   26 1
  45   25   43 1
  46   25   44 1

#	End of record

