#	Name: ASD07930248
#	Creating user name:	WinNT
#	Creation time:	15. 06. 2019 21:12

#	Modifying user name:	WinNT
#	Modification time:	15. 06. 2019 21:12

#	Program:	/corina/corina34_cracker 3.40 0067  02.08.2006

@<TRIPOS>MOLECULE
ASD07930248
  53   57    0    0    0
SMALL
NO_CHARGES


@<TRIPOS>ATOM
   1 C1             0.1212     0.1547    -1.4577 C.2     
   2 C2             0.3934    -1.1733    -1.6410 C.2     
   3 C3             1.7747    -1.6384    -1.4927 C.2     
   4 N4             2.7370    -0.7535    -1.1795 N.am    
   5 C5             2.4380     0.5785    -1.0019 C.2     
   6 C6             1.1624     1.0338    -1.1347 C.2     
   7 C7             4.1313    -1.1872    -1.0171 C.3     
   8 C8             5.0379    -0.1227    -1.6528 C.3     
   9 N9             4.8061     1.1570    -0.9679 N.am    
  10 C10            3.5349     1.5121    -0.6635 C.2     
  11 C11            5.9288     2.0319    -0.6210 C.3     
  12 O12            3.3001     2.5758    -0.1235 O.2     
  13 O13            2.0486    -2.8159    -1.6512 O.2     
  14 N14           -0.6283    -2.0708    -1.9638 N.pl3   
  15 C15           -0.7536    -2.7699    -3.1225 C.2     
  16 N16           -1.8324    -3.5009    -3.0520 N.2     
  17 C17           -2.4282    -3.3013    -1.8667 C.2     
  18 C18           -1.6908    -2.4169    -1.1688 C.2     
  19 C19           -3.7000    -3.9581    -1.3954 C.3     
  20 C20            6.3137     2.8746    -1.8385 C.3     
  21 O21            5.2648     3.8011    -2.1275 O.3     
  22 C22            5.3848     4.5331    -3.2651 C.ar    
  23 C23            4.4550     5.5515    -3.5562 C.ar    
  24 C24            6.4189     4.2905    -4.1408 C.ar    
  25 C25            6.5520     5.0353    -5.3093 C.ar    
  26 C26            5.6657     6.0216    -5.6184 C.ar    
  27 C27            4.5993     6.3032    -4.7483 C.ar    
  28 C28            3.6673     7.3154    -5.0415 C.ar    
  29 C29            2.6447     7.5614    -4.1760 C.ar    
  30 C30            2.5064     6.8252    -3.0014 C.ar    
  31 C31            3.3875     5.8345    -2.6871 C.ar    
  32 Cl32           3.1952     4.9296    -1.2182 Cl      
  33 Cl33           3.8201     8.2465    -6.4986 Cl      
  34 H34           -0.8883     0.5232    -1.5655 H       
  35 H35            0.9511     2.0829    -0.9898 H       
  36 H36            4.3654    -1.2849     0.0429 H       
  37 H37            4.2799    -2.1440    -1.5175 H       
  38 H38            6.0817    -0.4153    -1.5387 H       
  39 H39            4.7967    -0.0207    -2.7109 H       
  40 H40            5.6376     2.6891     0.1984 H       
  41 H41            6.7810     1.4252    -0.3149 H       
  42 H42           -0.0746    -2.7272    -3.9613 H       
  43 H43           -1.8999    -2.0458    -0.1763 H       
  44 H44           -3.4591    -4.8859    -0.8764 H       
  45 H45           -4.2249    -3.2872    -0.7153 H       
  46 H46           -4.3359    -4.1762    -2.2534 H       
  47 H47            7.2328     3.4210    -1.6264 H       
  48 H48            6.4691     2.2221    -2.6977 H       
  49 H49            7.1353     3.5135    -3.9186 H       
  50 H50            7.3717     4.8278    -5.9812 H       
  51 H51            5.7847     6.5894    -6.5294 H       
  52 H52            1.9306     8.3391    -4.4035 H       
  53 H53            1.6868     7.0405    -2.3318 H       
@<TRIPOS>BOND
   1    1    2 2
   2    1    6 1
   3    1   34 1
   4    2    3 1
   5    2   14 1
   6    3    4 am
   7    3   13 2
   8    4    5 1
   9    4    7 1
  10    5    6 2
  11    5   10 1
  12    6   35 1
  13    7    8 1
  14    7   36 1
  15    7   37 1
  16    8    9 1
  17    8   38 1
  18    8   39 1
  19    9   10 am
  20    9   11 1
  21   10   12 2
  22   11   20 1
  23   11   40 1
  24   11   41 1
  25   14   15 1
  26   14   18 1
  27   15   16 2
  28   15   42 1
  29   16   17 1
  30   17   18 2
  31   17   19 1
  32   18   43 1
  33   19   44 1
  34   19   45 1
  35   19   46 1
  36   20   21 1
  37   20   47 1
  38   20   48 1
  39   21   22 1
  40   22   23 ar
  41   22   24 ar
  42   23   27 ar
  43   23   31 ar
  44   24   25 ar
  45   24   49 1
  46   25   26 ar
  47   25   50 1
  48   26   27 ar
  49   26   51 1
  50   27   28 ar
  51   28   29 ar
  52   28   33 1
  53   29   30 ar
  54   29   52 1
  55   30   31 ar
  56   30   53 1
  57   31   32 1

#	End of record

