#	Name: ASD00170735
#	Creating user name:	WinNT
#	Creation time:	15. 06. 2019 18:32

#	Modifying user name:	WinNT
#	Modification time:	15. 06. 2019 18:32

#	Program:	/corina/corina34_cracker 3.40 0067  02.08.2006

@<TRIPOS>MOLECULE
ASD00170735
  88   94    0    0    0
SMALL
NO_CHARGES


@<TRIPOS>ATOM
   1 C1             2.1759     4.5314    -5.3833 C.3     
   2 C2             1.1884     5.5060    -4.7041 C.3     
   3 C3            -0.1961     5.0639    -5.2286 C.3     
   4 C4             0.1187     3.8744    -6.1626 C.3     
   5 O5             1.3858     3.3632    -5.6948 O.3     
   6 O6            -1.0305     4.6442    -4.1471 O.3     
   7 O7             1.2512     5.3728    -3.2827 O.3     
   8 C8             3.3098     4.1669    -4.4230 C.3     
   9 O9             4.2714     3.3599    -5.1058 O.3     
  10 N10           -0.9194     2.8472    -6.0478 N.pl3   
  11 C11           -2.1103     2.8168    -6.7285 C.ar    
  12 C12           -2.7733     1.6554    -6.2975 C.ar    
  13 N13           -1.9681     1.0484    -5.3931 N.2     
  14 C14           -0.8769     1.7431    -5.2495 C.2     
  15 N15           -2.6972     3.5995    -7.6283 N.ar    
  16 C16           -3.8829     3.2942    -8.1115 C.ar    
  17 N17           -4.5446     2.2145    -7.7369 N.ar    
  18 C18           -4.0374     1.3720    -6.8428 C.ar    
  19 N19           -4.7384     0.2424    -6.4565 N.pl3   
  20 C20           -5.9402    -0.0877    -7.0941 C.ar    
  21 C21           -6.1119     0.1960    -8.4427 C.ar    
  22 C22           -7.2975    -0.1304    -9.0710 C.ar    
  23 C23           -8.3169    -0.7411    -8.3554 C.ar    
  24 C24           -8.1462    -1.0249    -7.0084 C.ar    
  25 C25           -6.9590    -0.7044    -6.3799 C.ar    
  26 O26           -9.4844    -1.0614    -8.9747 O.3     
  27 N27          -16.2918    -3.8675    -9.0239 N.3     
  28 C28          -17.2523    -4.7194    -8.3080 C.3     
  29 C29          -18.6081    -4.6635    -9.0193 C.3     
  30 C30          -18.3779    -4.9211   -10.5004 C.2     
  31 C31          -17.1690    -4.8339   -11.0682 C.2     
  32 C32          -15.9079    -4.4715   -10.3084 C.3     
  33 C33          -19.4128    -5.2831   -11.4500 C.2     
  34 C34          -18.9373    -5.4602   -12.7254 C.2     
  35 S35          -17.2564    -5.1930   -12.7830 S.3     
  36 N36          -19.7145    -5.8078   -13.8117 N.pl3   
  37 C37          -20.8202    -5.4438   -11.0854 C.2     
  38 C38          -21.7149    -4.2668   -11.0535 C.ar    
  39 O39          -21.2551    -6.5469   -10.8081 O.2     
  40 C40          -23.0284    -4.3974   -10.5998 C.ar    
  41 C41          -23.8587    -3.2950   -10.5725 C.ar    
  42 C42          -23.3898    -2.0609   -10.9944 C.ar    
  43 C43          -22.0873    -1.9264   -11.4458 C.ar    
  44 C44          -21.2471    -3.0195   -11.4717 C.ar    
  45 Cl45         -24.4392    -0.6785   -10.9574 Cl      
  46 Cl46         -25.4930    -3.4548   -10.0092 Cl      
  47 C47          -10.4910    -1.6884    -8.1773 C.3     
  48 C48          -11.7225    -1.9710    -9.0401 C.3     
  49 C49          -12.8002    -2.6423    -8.1864 C.3     
  50 C50          -14.0317    -2.9249    -9.0492 C.3     
  51 C51          -15.1094    -3.5962    -8.1955 C.3     
  52 H52            2.5787     4.9732    -6.2947 H       
  53 H53            1.3996     6.5330    -5.0021 H       
  54 H54           -0.6693     5.8723    -5.7859 H       
  55 H55            0.2046     4.2147    -7.1946 H       
  56 H56           -1.2106     5.3373    -3.4973 H       
  57 H57            2.1175     5.5799    -2.9062 H       
  58 H58            3.7891     5.0778    -4.0643 H       
  59 H59            2.9050     3.6119    -3.5767 H       
  60 H60            5.0203     3.0910    -4.5564 H       
  61 H61           -0.0615     1.4868    -4.5893 H       
  62 H62           -4.3317     3.9517    -8.8414 H       
  63 H63           -4.3968    -0.3204    -5.7441 H       
  64 H64           -5.3187     0.6722    -8.9998 H       
  65 H65           -7.4313     0.0903   -10.1197 H       
  66 H66           -8.9405    -1.5001    -6.4519 H       
  67 H67           -6.8261    -0.9257    -5.3312 H       
  68 H68          -16.8894    -5.7472    -8.2972 H       
  69 H69          -17.3635    -4.3617    -7.2844 H       
  70 H70          -19.2693    -5.4280    -8.6113 H       
  71 H71          -19.0549    -3.6787    -8.8823 H       
  72 H72          -15.3237    -3.7573   -10.8885 H       
  73 H73          -15.3181    -5.3703   -10.1284 H       
  74 H74          -20.6778    -5.8721   -13.7181 H       
  75 H75          -19.2974    -5.9878   -14.6687 H       
  76 H76          -23.3944    -5.3589   -10.2713 H       
  77 H77          -21.7275    -0.9624   -11.7737 H       
  78 H78          -20.2317    -2.9130   -11.8239 H       
  79 H79          -10.1054    -2.6258    -7.7764 H       
  80 H80          -10.7671    -1.0280    -7.3553 H       
  81 H81          -12.1081    -1.0336    -9.4410 H       
  82 H82          -11.4464    -2.6314    -9.8621 H       
  83 H83          -12.4145    -3.5797    -7.7855 H       
  84 H84          -13.0762    -1.9819    -7.3644 H       
  85 H85          -14.4173    -1.9875    -9.4501 H       
  86 H86          -13.7556    -3.5853    -9.8712 H       
  87 H87          -15.3854    -2.9358    -7.3735 H       
  88 H88          -14.7237    -4.5336    -7.7946 H       
@<TRIPOS>BOND
   1    1    2 1
   2    1    8 1
   3    1    5 1
   4    1   52 1
   5    2    3 1
   6    2    7 1
   7    2   53 1
   8    3    4 1
   9    3    6 1
  10    3   54 1
  11    4    5 1
  12    4   10 1
  13    4   55 1
  14    6   56 1
  15    7   57 1
  16    8    9 1
  17    8   58 1
  18    8   59 1
  19    9   60 1
  20   10   11 1
  21   10   14 1
  22   11   12 ar
  23   11   15 ar
  24   12   13 1
  25   12   18 ar
  26   13   14 2
  27   14   61 1
  28   15   16 ar
  29   16   17 ar
  30   16   62 1
  31   17   18 ar
  32   18   19 1
  33   19   20 1
  34   19   63 1
  35   20   21 ar
  36   20   25 ar
  37   21   22 ar
  38   21   64 1
  39   22   23 ar
  40   22   65 1
  41   23   24 ar
  42   23   26 1
  43   24   25 ar
  44   24   66 1
  45   25   67 1
  46   26   47 1
  47   27   28 1
  48   27   32 1
  49   27   51 1
  50   28   29 1
  51   28   68 1
  52   28   69 1
  53   29   30 1
  54   29   70 1
  55   29   71 1
  56   30   31 2
  57   30   33 1
  58   31   32 1
  59   31   35 1
  60   32   72 1
  61   32   73 1
  62   33   34 2
  63   33   37 1
  64   34   35 1
  65   34   36 1
  66   36   74 1
  67   36   75 1
  68   37   38 1
  69   37   39 2
  70   38   40 ar
  71   38   44 ar
  72   40   41 ar
  73   40   76 1
  74   41   42 ar
  75   41   46 1
  76   42   43 ar
  77   42   45 1
  78   43   44 ar
  79   43   77 1
  80   44   78 1
  81   47   48 1
  82   47   79 1
  83   47   80 1
  84   48   49 1
  85   48   81 1
  86   48   82 1
  87   49   50 1
  88   49   83 1
  89   49   84 1
  90   50   51 1
  91   50   85 1
  92   50   86 1
  93   51   87 1
  94   51   88 1

#	End of record

