#	Name: ASD01912235
#	Creating user name:	WinNT
#	Creation time:	15. 06. 2019 19:59

#	Modifying user name:	WinNT
#	Modification time:	15. 06. 2019 19:59

#	Program:	/corina/corina34_cracker 3.40 0067  02.08.2006

@<TRIPOS>MOLECULE
ASD01912235
  45   47    0    0    0
SMALL
NO_CHARGES


@<TRIPOS>ATOM
   1 C1            -0.6399     1.2858     1.8512 C.2     
   2 C2            -0.5581    -0.2112     1.6991 C.3     
   3 C3             0.5770     2.1091     1.7134 C.ar    
   4 C4             0.4930     3.4952     1.8556 C.ar    
   5 C5             1.6418     4.2626     1.7251 C.ar    
   6 C6             2.8384     3.6239     1.4569 C.ar    
   7 C7             2.8560     2.2286     1.3254 C.ar    
   8 N8             1.7413     1.5233     1.4608 N.ar    
   9 C9             4.0903     1.5579     1.0475 C.1     
  10 C10            5.1023     1.0080     0.8198 C.1     
  11 C11            6.3366     0.3373     0.5419 C.2     
  12 N12            6.5645    -3.7097     1.0577 N.3     
  13 C13            7.7785    -2.8858     1.1138 C.3     
  14 C14            7.6515    -1.7237     0.1220 C.3     
  15 C15            6.3605    -0.9888     0.4157 C.2     
  16 C16            5.0975    -1.8115     0.5616 C.3     
  17 C17            5.3868    -2.9680     1.5255 C.3     
  18 C18            6.7286    -4.8882     1.7762 C.ar    
  19 C19            6.1474    -6.0646     1.3133 C.ar    
  20 C20            6.3192    -7.2300     2.0378 C.ar    
  21 C21            7.0693    -7.1800     3.2056 C.ar    
  22 C22            7.6174    -5.9783     3.6061 C.ar    
  23 N23            7.4412    -4.8825     2.8920 N.ar    
  24 N24            5.4226    -6.0682     0.1685 N.pl3   
  25 O25            4.8311    -7.0761    -0.1746 O.2     
  26 O26            5.3626    -5.0636    -0.5175 O.2     
  27 O27           -1.7062     1.8142     2.0817 O.2     
  28 H28           -0.3615    -0.6649     2.6704 H       
  29 H29           -1.5022    -0.5887     1.3062 H       
  30 H30            0.2486    -0.4629     1.0105 H       
  31 H31           -0.4564     3.9656     2.0648 H       
  32 H32            1.6019     5.3367     1.8306 H       
  33 H33            3.7494     4.1940     1.3495 H       
  34 H34            7.2482     0.9065     0.4347 H       
  35 H35            7.9038    -2.4911     2.1221 H       
  36 H36            8.6436    -3.4948     0.8514 H       
  37 H37            8.4961    -1.0450     0.2410 H       
  38 H38            7.6307    -2.1106    -0.8968 H       
  39 H39            4.2979    -1.1893     0.9635 H       
  40 H40            4.8026    -2.2078    -0.4100 H       
  41 H41            4.5264    -3.6362     1.5601 H       
  42 H42            5.5794    -2.5710     2.5222 H       
  43 H43            5.8796    -8.1580     1.7033 H       
  44 H44            7.2220    -8.0724     3.7944 H       
  45 H45            8.2011    -5.9349     4.5138 H       
@<TRIPOS>BOND
   1    1    2 1
   2    1    3 1
   3    1   27 2
   4    2   28 1
   5    2   29 1
   6    2   30 1
   7    3    4 ar
   8    3    8 ar
   9    4    5 ar
  10    4   31 1
  11    5    6 ar
  12    5   32 1
  13    6    7 ar
  14    6   33 1
  15    7    8 ar
  16    7    9 1
  17    9   10 3
  18   10   11 1
  19   11   15 2
  20   11   34 1
  21   12   13 1
  22   12   17 1
  23   12   18 1
  24   13   14 1
  25   13   35 1
  26   13   36 1
  27   14   15 1
  28   14   37 1
  29   14   38 1
  30   15   16 1
  31   16   17 1
  32   16   39 1
  33   16   40 1
  34   17   41 1
  35   17   42 1
  36   18   19 ar
  37   18   23 ar
  38   19   20 ar
  39   19   24 1
  40   20   21 ar
  41   20   43 1
  42   21   22 ar
  43   21   44 1
  44   22   23 ar
  45   22   45 1
  46   24   25 2
  47   24   26 2

#	End of record

