#	Name: ASD03240438
#	Creating user name:	WinNT
#	Creation time:	15. 06. 2019 20:34

#	Modifying user name:	WinNT
#	Modification time:	15. 06. 2019 20:34

#	Program:	/corina/corina34_cracker 3.40 0067  02.08.2006

@<TRIPOS>MOLECULE
ASD03240438
  47   50    0    0    0
SMALL
NO_CHARGES


@<TRIPOS>ATOM
   1 C1            -0.0654     1.4692    -0.0590 C.ar    
   2 C2            -0.9669     1.8073    -1.0509 C.ar    
   3 C3             2.5143     0.3928    -1.2826 C.ar    
   4 C4             2.1165     1.7129    -1.1725 C.ar    
   5 C5             1.2782     2.1491     0.0014 C.3     
   6 C6             3.2822    -0.0120    -2.3558 C.ar    
   7 C7             3.6564     0.9117    -3.3290 C.ar    
   8 C8             3.2535     2.2401    -3.2130 C.ar    
   9 C9             2.4857     2.6343    -2.1358 C.ar    
  10 C10            4.4827     0.4821    -4.4853 C.2     
  11 C11           -2.1993     1.1841    -1.1068 C.ar    
  12 C12           -2.5306     0.2217    -0.1697 C.ar    
  13 C13           -1.6279    -0.1163     0.8228 C.ar    
  14 C14           -0.3980     0.5117     0.8811 C.ar    
  15 Cl15          -4.0785    -0.5611    -0.2389 Cl      
  16 C16            1.0858     3.6675    -0.0433 C.3     
  17 C17            0.2858     4.1117     1.1834 C.3     
  18 N18            1.0055     3.7272     2.4043 N.3     
  19 C19            1.1605     2.2696     2.4925 C.3     
  20 C20            1.9859     1.7690     1.3049 C.3     
  21 C21            5.6403    -0.2377    -4.4260 C.2     
  22 N22            6.0740    -0.4176    -5.6898 N.pl3   
  23 N23            5.1667     0.2038    -6.5564 N.2     
  24 C24            4.2109     0.7382    -5.8434 C.2     
  25 C25            3.0290     1.5039    -6.3800 C.3     
  26 H26           -0.7083     2.5589    -1.7821 H       
  27 H27            2.2274    -0.3216    -0.5252 H       
  28 H28            3.5926    -1.0429    -2.4406 H       
  29 H29            3.5409     2.9602    -3.9648 H       
  30 H30            2.1725     3.6639    -2.0451 H       
  31 H31           -2.9036     1.4486    -1.8816 H       
  32 H32           -1.8860    -0.8675     1.5546 H       
  33 H33            0.3067     0.2480     1.6558 H       
  34 H34            2.0592     4.1579    -0.0400 H       
  35 H35            0.5439     3.9391    -0.9491 H       
  36 H36            0.1593     5.1941     1.1620 H       
  37 H37           -0.6927     3.6316     1.1722 H       
  38 H38            1.9005     4.1899     2.4573 H       
  39 H39            1.6694     2.0141     3.4219 H       
  40 H40            0.1779     1.7981     2.4751 H       
  41 H41            2.0871     0.6852     1.3631 H       
  42 H42            2.9738     2.2291     1.3286 H       
  43 H43            6.1219    -0.5980    -3.5290 H       
  44 H44            6.8763    -0.8949    -5.9532 H       
  45 H45            2.2074     0.8145    -6.5743 H       
  46 H46            2.7144     2.2469    -5.6472 H       
  47 H47            3.3106     2.0041    -7.3066 H       
@<TRIPOS>BOND
   1    1    2 ar
   2    1    5 1
   3    1   14 ar
   4    2   11 ar
   5    2   26 1
   6    3    4 ar
   7    3    6 ar
   8    3   27 1
   9    4    5 1
  10    4    9 ar
  11    5   16 1
  12    5   20 1
  13    6    7 ar
  14    6   28 1
  15    7    8 ar
  16    7   10 1
  17    8    9 ar
  18    8   29 1
  19    9   30 1
  20   10   21 2
  21   10   24 1
  22   11   12 ar
  23   11   31 1
  24   12   13 ar
  25   12   15 1
  26   13   14 ar
  27   13   32 1
  28   14   33 1
  29   16   17 1
  30   16   34 1
  31   16   35 1
  32   17   18 1
  33   17   36 1
  34   17   37 1
  35   18   19 1
  36   18   38 1
  37   19   20 1
  38   19   39 1
  39   19   40 1
  40   20   41 1
  41   20   42 1
  42   21   22 1
  43   21   43 1
  44   22   23 1
  45   22   44 1
  46   23   24 2
  47   24   25 1
  48   25   45 1
  49   25   46 1
  50   25   47 1

#	End of record

