#	Name: ASD01903244
#	Creating user name:	WinNT
#	Creation time:	15. 06. 2019 19:54

#	Modifying user name:	WinNT
#	Modification time:	15. 06. 2019 19:54

#	Program:	/corina/corina34_cracker 3.40 0067  02.08.2006

@<TRIPOS>MOLECULE
ASD01903244
  31   33    0    0    0
SMALL
NO_CHARGES


@<TRIPOS>ATOM
   1 S1            -0.0211     1.7049     0.0114 S.3     
   2 C2             0.0021    -0.0041     0.0020 C.2     
   3 N3             1.2221    -0.4387    -0.0120 N.2     
   4 C4             2.1845     0.4751    -0.0162 C.2     
   5 C5             1.7399     1.7439    -0.0052 C.2     
   6 N6            -1.1264    -0.8116     0.0092 N.pl3   
   7 C7            -2.3895    -0.2382     0.0246 C.ar    
   8 C8             3.6285     0.1263    -0.0319 C.2     
   9 C9             4.6494     0.8396    -0.6887 C.2     
  10 N10            5.7813     0.2234    -0.4705 N.2     
  11 N11            5.5297    -0.8989     0.3280 N.pl3   
  12 C12            4.2065    -0.9397     0.5921 C.2     
  13 N13           -3.4554    -1.0241     0.0312 N.ar    
  14 C14           -4.6747    -0.5108     0.0459 C.ar    
  15 C15           -4.8278     0.8685     0.0543 C.ar    
  16 C16           -3.6884     1.6615     0.0470 C.ar    
  17 N17           -2.4996     1.0818     0.0377 N.ar    
  18 F18           -6.0579     1.4268     0.0689 F       
  19 C19           -5.8821    -1.4125     0.0528 C.3     
  20 C20            2.5979     2.9828    -0.0072 C.3     
  21 H21           -1.0320    -1.7769     0.0034 H       
  22 H22            4.5197     1.7394    -1.2718 H       
  23 H23            6.1922    -1.5346     0.6408 H       
  24 H24            3.6969    -1.6853     1.1843 H       
  25 H25           -3.7717     2.7383     0.0528 H       
  26 H26           -6.1632    -1.6354     1.0821 H       
  27 H27           -6.7107    -0.9141    -0.4502 H       
  28 H28           -5.6458    -2.3402    -0.4683 H       
  29 H29            2.7946     3.2869    -1.0352 H       
  30 H30            2.0783     3.7855     0.5160 H       
  31 H31            3.5414     2.7721     0.4962 H       
@<TRIPOS>BOND
   1    1    2 1
   2    1    5 1
   3    2    3 2
   4    2    6 1
   5    3    4 1
   6    4    5 2
   7    4    8 1
   8    5   20 1
   9    6    7 1
  10    6   21 1
  11    7   13 ar
  12    7   17 ar
  13    8    9 1
  14    8   12 2
  15    9   10 2
  16    9   22 1
  17   10   11 1
  18   11   12 1
  19   11   23 1
  20   12   24 1
  21   13   14 ar
  22   14   15 ar
  23   14   19 1
  24   15   16 ar
  25   15   18 1
  26   16   17 ar
  27   16   25 1
  28   19   26 1
  29   19   27 1
  30   19   28 1
  31   20   29 1
  32   20   30 1
  33   20   31 1

#	End of record

