#	Name: ASD01890088
#	Creating user name:	WinNT
#	Creation time:	15. 06. 2019 19:50

#	Modifying user name:	WinNT
#	Modification time:	15. 06. 2019 19:50

#	Program:	/corina/corina34_cracker 3.40 0067  02.08.2006

@<TRIPOS>MOLECULE
ASD01890088
  34   35    0    0    0
SMALL
NO_CHARGES


@<TRIPOS>ATOM
   1 C1            -0.0178     1.4579     0.0101 C.2     
   2 C2             0.0021    -0.0041     0.0020 C.2     
   3 C3             1.1809    -0.6635    -0.0128 C.2     
   4 O4             1.0280     2.0808     0.0034 O.2     
   5 C5             1.2009    -2.1343    -0.0209 C.ar    
   6 C6             2.4197    -2.8210    -0.0362 C.ar    
   7 C7             2.4298    -4.1997    -0.0432 C.ar    
   8 C8             1.2384    -4.9043    -0.0356 C.ar    
   9 C9             0.0284    -4.2324    -0.0204 C.ar    
  10 C10            0.0012    -2.8540    -0.0074 C.ar    
  11 C11           -1.3086     2.1800     0.0201 C.ar    
  12 C12           -1.3311     3.5759     0.0278 C.ar    
  13 C13           -2.5384     4.2431     0.0367 C.ar    
  14 C14           -3.7254     3.5319     0.0380 C.ar    
  15 C15           -3.7102     2.1482     0.0308 C.ar    
  16 C16           -2.5099     1.4686     0.0161 C.ar    
  17 C17           -5.0406     4.2676     0.0477 C.3     
  18 C18           -5.4920     4.5244    -1.3915 C.3     
  19 H19           -0.9258    -0.5567     0.0079 H       
  20 H20            2.1088    -0.1108    -0.0187 H       
  21 H21            3.3501    -2.2726    -0.0429 H       
  22 H22            3.3699    -4.7313    -0.0550 H       
  23 H23            1.2531    -5.9842    -0.0419 H       
  24 H24           -0.8969    -4.7893    -0.0146 H       
  25 H25           -0.9437    -2.3311     0.0089 H       
  26 H26           -0.4053     4.1321     0.0272 H       
  27 H27           -2.5572     5.3229     0.0430 H       
  28 H28           -4.6403     1.5991     0.0322 H       
  29 H29           -2.4994     0.3887     0.0060 H       
  30 H30           -5.7900     3.6654     0.5615 H       
  31 H31           -4.9210     5.2189     0.5662 H       
  32 H32           -6.4432     5.0565    -1.3845 H       
  33 H33           -4.7426     5.1265    -1.9053 H       
  34 H34           -5.6116     3.5731    -1.9100 H       
@<TRIPOS>BOND
   1    1    2 1
   2    1    4 2
   3    1   11 1
   4    2    3 2
   5    2   19 1
   6    3    5 1
   7    3   20 1
   8    5    6 ar
   9    5   10 ar
  10    6    7 ar
  11    6   21 1
  12    7    8 ar
  13    7   22 1
  14    8    9 ar
  15    8   23 1
  16    9   10 ar
  17    9   24 1
  18   10   25 1
  19   11   12 ar
  20   11   16 ar
  21   12   13 ar
  22   12   26 1
  23   13   14 ar
  24   13   27 1
  25   14   15 ar
  26   14   17 1
  27   15   16 ar
  28   15   28 1
  29   16   29 1
  30   17   18 1
  31   17   30 1
  32   17   31 1
  33   18   32 1
  34   18   33 1
  35   18   34 1

#	End of record

