#	Name: ASD02560453
#	Creating user name:	WinNT
#	Creation time:	15. 06. 2019 20:25

#	Modifying user name:	WinNT
#	Modification time:	15. 06. 2019 20:25

#	Program:	/corina/corina34_cracker 3.40 0067  02.08.2006

@<TRIPOS>MOLECULE
ASD02560453
  40   43    0    0    0
SMALL
NO_CHARGES


@<TRIPOS>ATOM
   1 C1             0.0779     1.8514    -0.0177 C.2     
   2 C2            -0.0364     0.4497    -0.0040 C.2     
   3 C3             1.0674    -0.3235     0.0242 C.2     
   4 N4             2.3142     0.2421     0.0399 N.pl3   
   5 C5             2.4574     1.6108     0.0266 C.2     
   6 C6             1.3082     2.4293    -0.0029 C.2     
   7 C7             3.5700    -0.2982     0.0681 C.2     
   8 C8             4.4583     0.7567     0.0715 C.2     
   9 N9             3.7482     1.8995     0.0459 N.2     
  10 C10            5.9359     0.6504     0.0993 C.ar    
  11 N11            3.8910    -1.6558     0.0894 N.3     
  12 C12            2.6866    -2.4789     0.2630 C.3     
  13 C13            6.7099     1.4136    -0.7764 C.ar    
  14 C14            2.0369    -2.7851    -1.1093 C.3     
  15 C15            6.5588    -0.2079     1.0041 C.ar    
  16 C16            7.9367    -0.3028     1.0253 C.ar    
  17 C17            8.6988     0.4528     0.1507 C.ar    
  18 C18            8.0864     1.3102    -0.7458 C.ar    
  19 Cl19           8.7143    -1.3711     2.1512 Cl      
  20 Cl20           5.9434     2.4901    -1.9021 Cl      
  21 C21            3.0577    -3.8671     0.8241 C.3     
  22 C22            2.1315    -4.8827     0.1325 C.3     
  23 C23            1.2299    -4.0762    -0.8249 C.3     
  24 H24           -0.8092     2.4669    -0.0444 H       
  25 H25           -1.0138    -0.0096    -0.0158 H       
  26 H26            0.9674    -1.3988     0.0348 H       
  27 H27            1.4053     3.5049    -0.0132 H       
  28 H28            4.3935    -1.9217    -0.7442 H       
  29 H29            1.9757    -1.9790     0.9208 H       
  30 H30            1.3745    -1.9744    -1.4126 H       
  31 H31            2.8001    -2.9656    -1.8664 H       
  32 H32            5.9653    -0.7973     1.6873 H       
  33 H33            9.7758     0.3758     0.1714 H       
  34 H34            8.6861     1.8972    -1.4257 H       
  35 H35            4.0988    -4.0958     0.5964 H       
  36 H36            2.8973    -3.8892     1.9020 H       
  37 H37            2.7231    -5.6043    -0.4309 H       
  38 H38            1.5215    -5.3977     0.8747 H       
  39 H39            0.2819    -3.8353    -0.3439 H       
  40 H40            1.0604    -4.6312    -1.7476 H       
@<TRIPOS>BOND
   1    1    2 1
   2    1    6 2
   3    1   24 1
   4    2    3 2
   5    2   25 1
   6    3    4 1
   7    3   26 1
   8    4    5 1
   9    4    7 1
  10    5    6 1
  11    5    9 2
  12    6   27 1
  13    7    8 2
  14    7   11 1
  15    8    9 1
  16    8   10 1
  17   10   15 ar
  18   10   13 ar
  19   11   12 1
  20   11   28 1
  21   12   21 1
  22   12   14 1
  23   12   29 1
  24   13   20 1
  25   13   18 ar
  26   14   23 1
  27   14   30 1
  28   14   31 1
  29   15   16 ar
  30   15   32 1
  31   16   17 ar
  32   16   19 1
  33   17   18 ar
  34   17   33 1
  35   18   34 1
  36   21   22 1
  37   21   35 1
  38   21   36 1
  39   22   23 1
  40   22   37 1
  41   22   38 1
  42   23   39 1
  43   23   40 1

#	End of record

