#	Name: ASD01883030
#	Creating user name:	WinNT
#	Creation time:	15. 06. 2019 19:45

#	Modifying user name:	WinNT
#	Modification time:	15. 06. 2019 19:45

#	Program:	/corina/corina34_cracker 3.40 0067  02.08.2006

@<TRIPOS>MOLECULE
ASD01883030
  48   50    0    0    0
SMALL
NO_CHARGES


@<TRIPOS>ATOM
   1 N1            -0.2495     1.5398    -1.2530 N.am    
   2 C2            -0.3330     0.2821    -1.7247 C.2     
   3 C3            -1.5159    -0.4708    -1.5241 C.2     
   4 C4            -2.5846     0.1236    -0.8286 C.2     
   5 C5            -2.4352     1.4441    -0.3596 C.2     
   6 C6            -1.2797     2.1113    -0.5772 C.2     
   7 O7             0.6083    -0.2085    -2.3245 O.2     
   8 C8            -1.6220    -1.8101    -2.0196 C.1     
   9 N9            -1.7062    -2.8726    -2.4128 N.1     
  10 C10            0.9804     2.3062    -1.4677 C.3     
  11 C11            0.8786     3.0749    -2.7867 C.3     
  12 C12           -5.9156    -1.5113    -1.4191 C.ar    
  13 C13           -3.8380    -0.6211    -0.5951 C.ar    
  14 C14           -4.1227    -1.1339     0.6730 C.ar    
  15 C15           -5.2929    -1.8275     0.8870 C.ar    
  16 C16           -6.1921    -2.0188    -0.1561 C.ar    
  17 O17           -7.3441    -2.7034     0.0608 O.3     
  18 C18           -7.3392    -4.0435    -0.1544 C.ar    
  19 C19           -6.1602    -4.7103    -0.4802 C.ar    
  20 C20           -6.1967    -6.0732    -0.6907 C.ar    
  21 N21           -7.3289    -6.7434    -0.5873 N.ar    
  22 C22           -8.4656    -6.1476    -0.2806 C.ar    
  23 C23           -8.5114    -4.7880    -0.0493 C.ar    
  24 C24           -4.7452    -0.8152    -1.6435 C.ar    
  25 C25            2.1631     3.8753    -3.0109 C.3     
  26 C26            2.0614     4.6440    -4.3299 C.3     
  27 F27           -4.4758    -0.3218    -2.8720 F       
  28 C28           -9.7287    -6.9631    -0.1765 C.3     
  29 H29           -3.2419     1.9214     0.1769 H       
  30 H30           -1.1765     3.1227    -0.2129 H       
  31 H31            1.1180     3.0099    -0.6468 H       
  32 H32            1.8304     1.6251    -1.5088 H       
  33 H33            0.7411     2.3712    -3.6077 H       
  34 H34            0.0286     3.7560    -2.7457 H       
  35 H35           -6.6147    -1.6661    -2.2276 H       
  36 H36           -3.4254    -0.9867     1.4845 H       
  37 H37           -5.5126    -2.2241     1.8672 H       
  38 H38           -5.2305    -4.1677    -0.5671 H       
  39 H39           -5.2875    -6.5982    -0.9438 H       
  40 H40           -9.4451    -4.3065     0.2013 H       
  41 H41            2.3007     4.5790    -2.1900 H       
  42 H42            3.0132     3.1942    -3.0520 H       
  43 H43            1.9238     3.9403    -5.1509 H       
  44 H44            1.2113     5.3251    -4.2889 H       
  45 H45            2.9765     5.2142    -4.4897 H       
  46 H46           -9.8477    -7.3195     0.8466 H       
  47 H47          -10.5840    -6.3442    -0.4475 H       
  48 H48           -9.6678    -7.8153    -0.8534 H       
@<TRIPOS>BOND
   1    1    2 am
   2    1   10 1
   3    1    6 1
   4    2    3 1
   5    2    7 2
   6    3    4 2
   7    3    8 1
   8    4    5 1
   9    4   13 1
  10    5    6 2
  11    5   29 1
  12    6   30 1
  13    8    9 3
  14   10   11 1
  15   10   31 1
  16   10   32 1
  17   11   25 1
  18   11   33 1
  19   11   34 1
  20   12   24 ar
  21   12   16 ar
  22   12   35 1
  23   13   14 ar
  24   13   24 ar
  25   14   15 ar
  26   14   36 1
  27   15   16 ar
  28   15   37 1
  29   16   17 1
  30   17   18 1
  31   18   19 ar
  32   18   23 ar
  33   19   20 ar
  34   19   38 1
  35   20   21 ar
  36   20   39 1
  37   21   22 ar
  38   22   23 ar
  39   22   28 1
  40   23   40 1
  41   24   27 1
  42   25   26 1
  43   25   41 1
  44   25   42 1
  45   26   43 1
  46   26   44 1
  47   26   45 1
  48   28   46 1
  49   28   47 1
  50   28   48 1

#	End of record

