#	Name: ASD05380242
#	Creating user name:	WinNT
#	Creation time:	15. 06. 2019 20:59

#	Modifying user name:	WinNT
#	Modification time:	15. 06. 2019 20:59

#	Program:	/corina/corina34_cracker 3.40 0067  02.08.2006

@<TRIPOS>MOLECULE
ASD05380242
  56   57    0    0    0
SMALL
NO_CHARGES


@<TRIPOS>ATOM
   1 C1             2.2726    -0.5765    -2.3072 C.ar    
   2 C2             3.0675    -1.7010    -2.4248 C.ar    
   3 C3             4.3850    -1.6743    -1.9994 C.ar    
   4 C4             4.9149    -0.5246    -1.4542 C.ar    
   5 C5             4.1198     0.6177    -1.3308 C.ar    
   6 C6             2.7896     0.5850    -1.7626 C.ar    
   7 C7             5.0098     3.2426     1.0982 C.2     
   8 N8             4.5886     2.0724     0.5789 N.am    
   9 C9             4.6802     1.8520    -0.7475 C.2     
  10 C10            4.8108     3.5317     2.5638 C.3     
  11 C11            4.8894     0.3665     2.2643 C.ar    
  12 C12            4.0553     1.0849     1.4182 C.ar    
  13 C13            4.3608    -0.6059     3.0906 C.ar    
  14 C14            3.0024    -0.8644     3.0755 C.ar    
  15 C15            2.1692    -0.1502     2.2342 C.ar    
  16 C16            2.6918     0.8234     1.4056 C.ar    
  17 N17            5.8204     4.4934     3.0133 N.am    
  18 O18            5.2243     2.6696    -1.4633 O.2     
  19 C19            3.4147     4.1181     2.7828 C.3     
  20 F20            2.0125     1.6842    -1.6477 F       
  21 C21            3.1628     4.2889     4.2823 C.3     
  22 C22            6.1820     4.5337     4.3110 C.2     
  23 O23            5.6706     3.7723     5.1081 O.2     
  24 O24            5.5489     4.0626     0.3863 O.2     
  25 O25            7.1099     5.4174     4.7242 O.3     
  26 C26            7.4502     5.4044     6.1357 C.3     
  27 C27            7.9966     4.0268     6.5159 C.3     
  28 C28            8.5132     6.4692     6.4138 C.3     
  29 C29            6.1996     5.7037     6.9647 C.3     
  30 N30            6.3234    -0.5003    -0.9997 N.pl3   
  31 O31            7.0153    -1.4969    -1.1074 O.2     
  32 O32            6.7904     0.5162    -0.5180 O.2     
  33 H33            1.2473    -0.6034    -2.6452 H       
  34 H34            2.6587    -2.6055    -2.8505 H       
  35 H35            4.9993    -2.5574    -2.0949 H       
  36 H36            4.9102     2.6076     3.1332 H       
  37 H37            5.9510     0.5647     2.2731 H       
  38 H38            5.0090    -1.1651     3.7490 H       
  39 H39            2.5915    -1.6254     3.7222 H       
  40 H40            1.1087    -0.3546     2.2244 H       
  41 H41            2.0405     1.3808     0.7488 H       
  42 H42            6.2286     5.1011     2.3770 H       
  43 H43            3.3465     5.0880     2.2902 H       
  44 H44            2.6676     3.4442     2.3634 H       
  45 H45            2.1682     4.7066     4.4384 H       
  46 H46            3.2309     3.3190     4.7749 H       
  47 H47            3.9098     4.9628     4.7017 H       
  48 H48            8.8876     3.8136     5.9253 H       
  49 H49            8.2521     4.0171     7.5755 H       
  50 H50            7.2393     3.2683     6.3178 H       
  51 H51            8.1240     7.4506     6.1429 H       
  52 H52            8.7687     6.4594     7.4734 H       
  53 H53            9.4042     6.2560     5.8232 H       
  54 H54            5.4423     4.9452     6.7665 H       
  55 H55            6.4551     5.6939     8.0242 H       
  56 H56            5.8103     6.6851     6.6938 H       
@<TRIPOS>BOND
   1    1    2 ar
   2    1    6 ar
   3    1   33 1
   4    2    3 ar
   5    2   34 1
   6    3    4 ar
   7    3   35 1
   8    4    5 ar
   9    4   30 1
  10    5    6 ar
  11    5    9 1
  12    6   20 1
  13    7    8 am
  14    7   10 1
  15    7   24 2
  16    8    9 am
  17    8   12 1
  18    9   18 2
  19   10   17 1
  20   10   19 1
  21   10   36 1
  22   11   12 ar
  23   11   13 ar
  24   11   37 1
  25   12   16 ar
  26   13   14 ar
  27   13   38 1
  28   14   15 ar
  29   14   39 1
  30   15   16 ar
  31   15   40 1
  32   16   41 1
  33   17   22 am
  34   17   42 1
  35   19   21 1
  36   19   43 1
  37   19   44 1
  38   21   45 1
  39   21   46 1
  40   21   47 1
  41   22   23 2
  42   22   25 1
  43   25   26 1
  44   26   27 1
  45   26   28 1
  46   26   29 1
  47   27   48 1
  48   27   49 1
  49   27   50 1
  50   28   51 1
  51   28   52 1
  52   28   53 1
  53   29   54 1
  54   29   55 1
  55   29   56 1
  56   30   31 2
  57   30   32 2

#	End of record

