#	Name: ASD01530036
#	Creating user name:	WinNT
#	Creation time:	15. 06. 2019 19:22

#	Modifying user name:	WinNT
#	Modification time:	15. 06. 2019 19:22

#	Program:	/corina/corina34_cracker 3.40 0067  02.08.2006

@<TRIPOS>MOLECULE
ASD01530036
  37   39    0    0    0
SMALL
NO_CHARGES


@<TRIPOS>ATOM
   1 C1            -0.0198     1.4055    -0.0958 C.ar    
   2 C2            -0.0037     0.0045    -0.2085 C.ar    
   3 C3             1.1856    -0.6477    -0.3268 C.ar    
   4 C4             2.3897     0.0524    -0.3381 C.ar    
   5 C5             2.4107     1.4112    -0.2304 C.ar    
   6 C6             1.2063     2.1141    -0.1077 C.ar    
   7 C7             2.4322     4.3478     0.0072 C.2     
   8 O8             2.3892     5.6949     0.0032 O.3     
   9 O9             3.5035     3.7741     0.0087 O.2     
  10 C10           -1.2268     2.1153     0.0222 C.ar    
  11 C11           -1.2267     3.4720     0.1300 C.ar    
  12 C12           -0.0487     4.2069     0.1278 C.ar    
  13 C13            1.1806     3.5708     0.0100 C.ar    
  14 C14            3.6612     6.3950     0.0007 C.3     
  15 C15            3.5054     7.7332    -0.7245 C.3     
  16 C16            4.1084     6.6453     1.4424 C.3     
  17 C17            5.4488     7.3831     1.4397 C.3     
  18 C18            5.2930     8.7212     0.7145 C.3     
  19 C19            4.8458     8.4710    -0.7271 C.3     
  20 H20           -0.9295    -0.5515    -0.2009 H       
  21 H21            1.1955    -1.7242    -0.4129 H       
  22 H22            3.3195    -0.4887    -0.4331 H       
  23 H23            3.3511     1.9422    -0.2397 H       
  24 H24           -2.1641     1.5788     0.0271 H       
  25 H25           -2.1693     3.9915     0.2194 H       
  26 H26           -0.0886     5.2826     0.2146 H       
  27 H27            4.4085     5.7890    -0.5115 H       
  28 H28            3.1868     7.5549    -1.7515 H       
  29 H29            2.7581     8.3392    -0.2122 H       
  30 H30            3.3611     7.2513     1.9546 H       
  31 H31            4.2195     5.6920     1.9590 H       
  32 H32            5.7674     7.5614     2.4668 H       
  33 H33            6.1961     6.7771     0.9275 H       
  34 H34            4.5457     9.3273     1.2268 H       
  35 H35            6.2479     9.2469     0.7127 H       
  36 H36            5.5931     7.8650    -1.2393 H       
  37 H37            4.7347     9.4243    -1.2438 H       
@<TRIPOS>BOND
   1    1    2 ar
   2    1    6 ar
   3    1   10 ar
   4    2    3 ar
   5    2   20 1
   6    3    4 ar
   7    3   21 1
   8    4    5 ar
   9    4   22 1
  10    5    6 ar
  11    5   23 1
  12    6   13 ar
  13    7    8 1
  14    7    9 2
  15    7   13 1
  16    8   14 1
  17   10   11 ar
  18   10   24 1
  19   11   12 ar
  20   11   25 1
  21   12   13 ar
  22   12   26 1
  23   14   15 1
  24   14   16 1
  25   14   27 1
  26   15   19 1
  27   15   28 1
  28   15   29 1
  29   16   17 1
  30   16   30 1
  31   16   31 1
  32   17   18 1
  33   17   32 1
  34   17   33 1
  35   18   19 1
  36   18   34 1
  37   18   35 1
  38   19   36 1
  39   19   37 1

#	End of record

