#	Name: ASD03092193
#	Creating user name:	WinNT
#	Creation time:	15. 06. 2019 20:32

#	Modifying user name:	WinNT
#	Modification time:	15. 06. 2019 20:32

#	Program:	/corina/corina34_cracker 3.40 0067  02.08.2006

@<TRIPOS>MOLECULE
ASD03092193
  56   60    0    0    0
SMALL
NO_CHARGES


@<TRIPOS>ATOM
   1 N1             0.2746     0.9016    -0.3997 N.pl3   
   2 C2             0.0718    -0.3530     0.0938 C.2     
   3 C3            -1.2693    -0.4963     0.3091 C.2     
   4 C4            -1.8930     0.7012    -0.0634 C.2     
   5 N5            -0.9708     1.5373    -0.4815 N.2     
   6 C6             1.1132    -1.3723     0.3488 C.ar    
   7 C7             0.8899    -2.4182     1.2514 C.ar    
   8 C8             1.8884    -3.3468     1.4591 C.ar    
   9 N9             3.0399    -3.2577     0.8210 N.ar    
  10 C10            3.2913    -2.2880    -0.0379 C.ar    
  11 C11            2.3467    -1.3206    -0.3102 C.ar    
  12 C12            1.5663     1.4837    -0.7723 C.3     
  13 N13           -3.2665     0.9640     0.0036 N.pl3   
  14 C14           -3.7488     2.2448    -0.2883 C.ar    
  15 C15           -5.0287     2.4043    -0.8024 C.ar    
  16 C16           -5.5064     3.6690    -1.0906 C.ar    
  17 C17           -4.7103     4.7802    -0.8680 C.ar    
  18 C18           -3.4256     4.6235    -0.3522 C.ar    
  19 C19           -2.9496     3.3570    -0.0583 C.ar    
  20 O20           -2.8524     5.8561    -0.2269 O.3     
  21 O21           -4.9412     6.1123    -1.0654 O.3     
  22 C22           -3.9424     6.7951    -0.2847 C.3     
  23 F23           -4.4245     7.0683     0.9998 F       
  24 F24           -3.5419     7.9744    -0.9220 F       
  25 C25            1.8026     1.2799    -2.2467 C.2     
  26 N26            2.9352     1.7365    -2.8171 N.am    
  27 C27            3.1649     1.5384    -4.2503 C.3     
  28 C28            4.6263    -2.2405    -0.7354 C.3     
  29 C29            1.6613    -4.4782     2.4283 C.3     
  30 O30            0.9737     0.7051    -2.9199 O.2     
  31 C31            4.1177     2.5740    -4.8704 C.3     
  32 C32            4.7207     1.4162    -5.6832 C.3     
  33 C33            4.2374     0.4813    -4.5620 C.3     
  34 H34           -1.7612    -1.3762     0.6967 H       
  35 H35           -0.0499    -2.4969     1.7777 H       
  36 H36            2.5593    -0.5298    -1.0143 H       
  37 H37            1.5620     2.5506    -0.5491 H       
  38 H38            2.3608     0.9973    -0.2064 H       
  39 H39           -3.8838     0.2583     0.2522 H       
  40 H40           -5.6513     1.5395    -0.9777 H       
  41 H41           -6.5023     3.7907    -1.4905 H       
  42 H42           -1.9541     3.2335     0.3420 H       
  43 H43            3.5982     2.1963    -2.2786 H       
  44 H44            2.2408     1.4037    -4.8124 H       
  45 H45            4.5705    -2.8061    -1.6656 H       
  46 H46            4.8849    -1.2047    -0.9550 H       
  47 H47            5.3890    -2.6765    -0.0903 H       
  48 H48            1.2286    -5.3278     1.9001 H       
  49 H49            2.6122    -4.7725     2.8725 H       
  50 H50            0.9789    -4.1526     3.2135 H       
  51 H51            3.6123     3.3207    -5.4829 H       
  52 H52            4.8121     3.0125    -4.1538 H       
  53 H53            4.2226     1.2470    -6.6379 H       
  54 H54            5.8059     1.4649    -5.7736 H       
  55 H55            4.9645     0.3477    -3.7610 H       
  56 H56            3.8285    -0.4615    -4.9254 H       
@<TRIPOS>BOND
   1    1    2 1
   2    1   12 1
   3    1    5 1
   4    2    3 2
   5    2    6 1
   6    3    4 1
   7    3   34 1
   8    4    5 2
   9    4   13 1
  10    6    7 ar
  11    6   11 ar
  12    7    8 ar
  13    7   35 1
  14    8    9 ar
  15    8   29 1
  16    9   10 ar
  17   10   11 ar
  18   10   28 1
  19   11   36 1
  20   12   25 1
  21   12   37 1
  22   12   38 1
  23   13   14 1
  24   13   39 1
  25   14   15 ar
  26   14   19 ar
  27   15   16 ar
  28   15   40 1
  29   16   17 ar
  30   16   41 1
  31   17   18 ar
  32   17   21 1
  33   18   19 ar
  34   18   20 1
  35   19   42 1
  36   20   22 1
  37   21   22 1
  38   22   23 1
  39   22   24 1
  40   25   26 am
  41   25   30 2
  42   26   27 1
  43   26   43 1
  44   27   31 1
  45   27   33 1
  46   27   44 1
  47   28   45 1
  48   28   46 1
  49   28   47 1
  50   29   48 1
  51   29   49 1
  52   29   50 1
  53   31   32 1
  54   31   51 1
  55   31   52 1
  56   32   33 1
  57   32   53 1
  58   32   54 1
  59   33   55 1
  60   33   56 1

#	End of record

