#	Name: ASD01200398
#	Creating user name:	WinNT
#	Creation time:	15. 06. 2019 19:09

#	Modifying user name:	WinNT
#	Modification time:	15. 06. 2019 19:09

#	Program:	/corina/corina34_cracker 3.40 0067  02.08.2006

@<TRIPOS>MOLECULE
ASD01200398
  55   56    0    0    0
SMALL
NO_CHARGES


@<TRIPOS>ATOM
   1 N1            -0.0178     1.4608     0.0101 N.pl3   
   2 C2             0.0234     0.0208     0.2768 C.3     
   3 C3            -0.9984    -0.3264     1.3614 C.3     
   4 P4            -0.3772    -0.8916    -1.2498 P.3     
   5 C5             1.1726     2.1756    -0.1547 C.ar    
   6 O6            -0.2043    -2.4713    -0.9918 O.3     
   7 O7            -1.7752    -0.6060    -1.6428 O.2     
   8 O8             0.6170    -0.4283    -2.4284 O.3     
   9 C9             0.4914    -0.8845    -3.7768 C.3     
  10 C10            1.5910    -0.2534    -4.6333 C.3     
  11 C11           -0.5442    -3.4607    -1.9653 C.3     
  12 C12           -0.2580    -4.8529    -1.3990 C.3     
  13 C13            1.1442     3.5606    -0.2520 C.ar    
  14 C14            2.3214     4.2647    -0.4142 C.ar    
  15 C15            3.5291     3.5906    -0.4799 C.ar    
  16 C16            3.5597     2.2097    -0.3831 C.ar    
  17 C17            2.3855     1.5019    -0.2155 C.ar    
  18 N18           -2.3397     0.0479     0.9065 N.pl3   
  19 F19            4.6792     4.2813    -0.6391 F       
  20 C20           -3.4468    -0.1746     1.7338 C.ar    
  21 C21           -3.2840    -0.7488     2.9860 C.ar    
  22 N22           -4.3232    -0.9612     3.7705 N.ar    
  23 C23           -5.5510    -0.6392     3.4004 C.ar    
  24 C24           -5.7912    -0.0607     2.1613 C.ar    
  25 C25           -4.7258     0.1831     1.3124 C.ar    
  26 C26           -4.9446     0.8151    -0.0380 C.3     
  27 O27           -6.5895    -0.8774     4.2421 O.3     
  28 C28           -6.2792    -1.4749     5.5026 C.3     
  29 H29           -0.8709     1.9176    -0.0562 H       
  30 H30            1.0214    -0.2576     0.6152 H       
  31 H31           -0.9677    -1.3977     1.5598 H       
  32 H32           -0.7589     0.2192     2.2741 H       
  33 H33            0.5880    -1.9699    -3.8036 H       
  34 H34           -0.4843    -0.5968    -4.1684 H       
  35 H35            2.5667    -0.5411    -4.2417 H       
  36 H36            1.4952    -0.6013    -5.6618 H       
  37 H37            1.4944     0.8320    -4.6064 H       
  38 H38           -1.6028    -3.3793    -2.2118 H       
  39 H39            0.0513    -3.3049    -2.8649 H       
  40 H40            0.8007    -4.9343    -1.1525 H       
  41 H41           -0.8535    -5.0087    -0.4994 H       
  42 H42           -0.5172    -5.6076    -2.1415 H       
  43 H43            0.2024     4.0868    -0.2011 H       
  44 H44            2.2998     5.3418    -0.4903 H       
  45 H45            4.5027     1.6859    -0.4350 H       
  46 H46            2.4098     0.4248    -0.1401 H       
  47 H47           -2.4607     0.4498     0.0320 H       
  48 H48           -2.2956    -1.0254     3.3223 H       
  49 H49           -6.7967     0.1995     1.8653 H       
  50 H50           -5.1208     0.0359    -0.7796 H       
  51 H51           -5.8096     1.4769     0.0063 H       
  52 H52           -4.0615     1.3897    -0.3176 H       
  53 H53           -5.8066    -2.4434     5.3391 H       
  54 H54           -5.5980    -0.8267     6.0540 H       
  55 H55           -7.1961    -1.6102     6.0761 H       
@<TRIPOS>BOND
   1    1    2 1
   2    1    5 1
   3    1   29 1
   4    2    3 1
   5    2    4 1
   6    2   30 1
   7    3   18 1
   8    3   31 1
   9    3   32 1
  10    4    6 1
  11    4    7 2
  12    4    8 1
  13    5   13 ar
  14    5   17 ar
  15    6   11 1
  16    8    9 1
  17    9   10 1
  18    9   33 1
  19    9   34 1
  20   10   35 1
  21   10   36 1
  22   10   37 1
  23   11   12 1
  24   11   38 1
  25   11   39 1
  26   12   40 1
  27   12   41 1
  28   12   42 1
  29   13   14 ar
  30   13   43 1
  31   14   15 ar
  32   14   44 1
  33   15   16 ar
  34   15   19 1
  35   16   17 ar
  36   16   45 1
  37   17   46 1
  38   18   20 1
  39   18   47 1
  40   20   21 ar
  41   20   25 ar
  42   21   22 ar
  43   21   48 1
  44   22   23 ar
  45   23   24 ar
  46   23   27 1
  47   24   25 ar
  48   24   49 1
  49   25   26 1
  50   26   50 1
  51   26   51 1
  52   26   52 1
  53   27   28 1
  54   28   53 1
  55   28   54 1
  56   28   55 1

#	End of record

