#	Name: ASD08178241
#	Creating user name:	WinNT
#	Creation time:	15. 06. 2019 21:18

#	Modifying user name:	WinNT
#	Modification time:	15. 06. 2019 21:18

#	Program:	/corina/corina34_cracker 3.40 0067  02.08.2006

@<TRIPOS>MOLECULE
ASD08178241
  81   85    0    0    0
SMALL
NO_CHARGES


@<TRIPOS>ATOM
   1 N1             0.2945     1.4125    -0.0304 N.am    
   2 C2             0.2724     0.0182    -0.0255 C.ar    
   3 C3             1.4560    -0.7010    -0.1792 C.ar    
   4 N4            -0.8730    -0.6285     0.1307 N.ar    
   5 N5            -0.9361    -1.9104     0.1414 N.ar    
   6 C6             0.1328    -2.6691    -0.0021 C.ar    
   7 C7             1.3806    -2.0855    -0.1669 C.ar    
   8 C8            -0.0002    -4.1700     0.0189 C.3     
   9 C9            -0.7029    -4.6017     1.3076 C.3     
  10 C10           -0.8379    -6.1256     1.3290 C.3     
  11 C11           -1.5407    -6.5573     2.6176 C.3     
  12 C12           -1.6737    -8.0583     2.6387 C.2     
  13 N13           -0.8150    -8.8945     3.1297 N.2     
  14 N14           -1.1106   -10.1194     3.0507 N.2     
  15 C15           -2.2394   -10.4323     2.4894 C.2     
  16 S16           -3.0302    -8.9916     2.0059 S.3     
  17 N17           -2.7277   -11.7228     2.3149 N.am    
  18 C18           -2.0101   -12.7789     2.7465 C.2     
  19 C19           -2.5392   -14.1772     2.5574 C.3     
  20 O20           -0.9387   -12.6038     3.2871 O.2     
  21 C21           -1.5542   -15.1677     3.1227 C.ar    
  22 C22           -1.6498   -15.5585     4.4455 C.ar    
  23 C23           -0.7479   -16.4676     4.9680 C.ar    
  24 C24            0.2515   -16.9877     4.1695 C.ar    
  25 C25            0.3502   -16.5972     2.8403 C.ar    
  26 C26           -0.5602   -15.6886     2.3173 C.ar    
  27 C27           -0.8611     2.1049     0.0117 C.2     
  28 O28           -1.9215     1.5187    -0.0409 O.2     
  29 C29           -0.8355     3.6075     0.1239 C.3     
  30 C30           -2.2475     4.1333     0.1514 C.ar    
  31 C31           -2.9051     4.2854     1.3578 C.ar    
  32 C32           -4.2003     4.7677     1.3830 C.ar    
  33 C33           -4.8379     5.0982     0.2018 C.ar    
  34 C34           -4.1800     4.9470    -1.0045 C.ar    
  35 C35           -2.8832     4.4688    -1.0294 C.ar    
  36 N36            1.3618   -17.1223     2.0286 N.am    
  37 C37            1.8230   -16.4105     0.9812 C.2     
  38 C38            2.8251   -17.0228     0.0368 C.3     
  39 O39            1.4315   -15.2772     0.7987 O.2     
  40 N40            3.2348   -16.0227    -0.9582 N.3     
  41 C41            2.1210   -15.6870    -1.8572 C.3     
  42 C42            2.5729   -14.6011    -2.8373 C.3     
  43 O43            3.7250   -15.0589    -3.5502 O.3     
  44 C44            4.8292   -15.3942    -2.7054 C.3     
  45 C45            4.4002   -16.4881    -1.7240 C.3     
  46 H46            1.1416     1.8841    -0.0599 H       
  47 H47            2.4024    -0.1959    -0.3044 H       
  48 H48            2.2665    -2.6916    -0.2861 H       
  49 H49           -0.5861    -4.4950    -0.8408 H       
  50 H50            0.9902    -4.6232    -0.0241 H       
  51 H51           -0.1170    -4.2768     2.1674 H       
  52 H52           -1.6933    -4.1486     1.3507 H       
  53 H53           -1.4239    -6.4506     0.4692 H       
  54 H54            0.1525    -6.5788     1.2859 H       
  55 H55           -0.9548    -6.2324     3.4774 H       
  56 H56           -2.5311    -6.1042     2.6607 H       
  57 H57           -3.5846   -11.8628     1.8825 H       
  58 H58           -3.4932   -14.2778     3.0750 H       
  59 H59           -2.6804   -14.3716     1.4942 H       
  60 H60           -2.4301   -15.1526     5.0722 H       
  61 H61           -0.8253   -16.7709     6.0017 H       
  62 H62            0.9558   -17.6971     4.5783 H       
  63 H63           -0.4863   -15.3832     1.2840 H       
  64 H64           -0.3230     3.8946     1.0421 H       
  65 H65           -0.3082     4.0269    -0.7329 H       
  66 H66           -2.4070     4.0272     2.2806 H       
  67 H67           -4.7143     4.8859     2.3254 H       
  68 H68           -5.8501     5.4743     0.2214 H       
  69 H69           -4.6782     5.2049    -1.9274 H       
  70 H70           -2.3692     4.3506    -1.9719 H       
  71 H71            1.7311   -17.9987     2.2197 H       
  72 H72            3.6981   -17.3550     0.5987 H       
  73 H73            2.3731   -17.8754    -0.4699 H       
  74 H74            1.8205   -16.5758    -2.4120 H       
  75 H75            1.2781   -15.3206    -1.2713 H       
  76 H76            1.7689   -14.3896    -3.5422 H       
  77 H77            2.8224   -13.6944    -2.2861 H       
  78 H78            5.6570   -15.7563    -3.3150 H       
  79 H79            5.1443   -14.5105    -2.1505 H       
  80 H80            5.2210   -16.7065    -1.0409 H       
  81 H81            4.1361   -17.3897    -2.2767 H       
@<TRIPOS>BOND
   1    1    2 1
   2    1   27 am
   3    1   46 1
   4    2    3 ar
   5    2    4 ar
   6    3    7 ar
   7    3   47 1
   8    4    5 ar
   9    5    6 ar
  10    6    7 ar
  11    6    8 1
  12    7   48 1
  13    8    9 1
  14    8   49 1
  15    8   50 1
  16    9   10 1
  17    9   51 1
  18    9   52 1
  19   10   11 1
  20   10   53 1
  21   10   54 1
  22   11   12 1
  23   11   55 1
  24   11   56 1
  25   12   13 2
  26   12   16 1
  27   13   14 1
  28   14   15 2
  29   15   16 1
  30   15   17 1
  31   17   18 am
  32   17   57 1
  33   18   19 1
  34   18   20 2
  35   19   21 1
  36   19   58 1
  37   19   59 1
  38   21   22 ar
  39   21   26 ar
  40   22   23 ar
  41   22   60 1
  42   23   24 ar
  43   23   61 1
  44   24   25 ar
  45   24   62 1
  46   25   26 ar
  47   25   36 1
  48   26   63 1
  49   27   28 2
  50   27   29 1
  51   29   30 1
  52   29   64 1
  53   29   65 1
  54   30   31 ar
  55   30   35 ar
  56   31   32 ar
  57   31   66 1
  58   32   33 ar
  59   32   67 1
  60   33   34 ar
  61   33   68 1
  62   34   35 ar
  63   34   69 1
  64   35   70 1
  65   36   37 am
  66   36   71 1
  67   37   38 1
  68   37   39 2
  69   38   40 1
  70   38   72 1
  71   38   73 1
  72   40   41 1
  73   40   45 1
  74   41   42 1
  75   41   74 1
  76   41   75 1
  77   42   43 1
  78   42   76 1
  79   42   77 1
  80   43   44 1
  81   44   45 1
  82   44   78 1
  83   44   79 1
  84   45   80 1
  85   45   81 1

#	End of record

