#	Name: ASD09720042
#	Creating user name:	WinNT
#	Creation time:	15. 06. 2019 21:22

#	Modifying user name:	WinNT
#	Modification time:	15. 06. 2019 21:22

#	Program:	/corina/corina34_cracker 3.40 0067  02.08.2006

@<TRIPOS>MOLECULE
ASD09720042
  31   32    0    0    0
SMALL
NO_CHARGES


@<TRIPOS>ATOM
   1 C1            -0.0155     1.4720     0.0368 C.ar    
   2 C2             0.0021    -0.0041     0.0020 C.2     
   3 N3             1.1255    -0.6349    -0.1097 N.2     
   4 C4            -1.2891    -0.7754     0.0967 C.3     
   5 O5             2.3238     0.0866    -0.3304 O.3     
   6 S6            -0.9377    -2.5537     0.0261 S.3     
   7 C7            -2.5386    -3.2793     0.1486 C.ar    
   8 C8            -2.6802    -4.6617     0.1297 C.ar    
   9 C9            -3.9364    -5.2267     0.2260 C.ar    
  10 C10           -5.0530    -4.4188     0.3406 C.ar    
  11 C11           -4.9160    -3.0427     0.3593 C.ar    
  12 C12           -3.6624    -2.4707     0.2702 C.ar    
  13 C13            1.0411     2.1711     0.6209 C.ar    
  14 C14            1.0178     3.5555     0.6494 C.ar    
  15 C15           -0.0542     4.2439     0.0981 C.ar    
  16 C16           -1.1023     3.5524    -0.4812 C.ar    
  17 C17           -1.0870     2.1734    -0.5198 C.ar    
  18 O18            2.0449     4.2405     1.2177 O.3     
  19 H19           -1.9337     4.0937    -0.9081 H       
  20 H20           -1.7847    -0.5401     1.0385 H       
  21 H21           -1.9385    -0.5001    -0.7343 H       
  22 H22            3.1111    -0.4705    -0.4004 H       
  23 H23           -1.8087    -5.2932     0.0395 H       
  24 H24           -4.0471    -6.3010     0.2113 H       
  25 H25           -6.0343    -4.8635     0.4153 H       
  26 H26           -5.7902    -2.4148     0.4486 H       
  27 H27           -3.5562    -1.3960     0.2848 H       
  28 H28            1.8745     1.6344     1.0498 H       
  29 H29           -0.0699     5.3235     0.1220 H       
  30 H30           -1.9072     1.6364    -0.9730 H       
  31 H31            2.7579     4.4618     0.6031 H       
@<TRIPOS>BOND
   1    1    2 1
   2    1   13 ar
   3    1   17 ar
   4    2    3 2
   5    2    4 1
   6    3    5 1
   7    4    6 1
   8    4   20 1
   9    4   21 1
  10    5   22 1
  11    6    7 1
  12    7    8 ar
  13    7   12 ar
  14    8    9 ar
  15    8   23 1
  16    9   10 ar
  17    9   24 1
  18   10   11 ar
  19   10   25 1
  20   11   12 ar
  21   11   26 1
  22   12   27 1
  23   13   14 ar
  24   13   28 1
  25   14   15 ar
  26   14   18 1
  27   15   16 ar
  28   15   29 1
  29   16   17 ar
  30   16   19 1
  31   17   30 1
  32   18   31 1

#	End of record

