#	Name: ASD08150325
#	Creating user name:	WinNT
#	Creation time:	15. 06. 2019 21:15

#	Modifying user name:	WinNT
#	Modification time:	15. 06. 2019 21:15

#	Program:	/corina/corina34_cracker 3.40 0067  02.08.2006

@<TRIPOS>MOLECULE
ASD08150325
  73   79    0    0    0
SMALL
NO_CHARGES


@<TRIPOS>ATOM
   1 N1            -1.0546     0.8840    -2.6172 N.am    
   2 C2            -1.4998     0.5924    -3.8548 C.2     
   3 C3            -0.8795    -0.4084    -4.6299 C.2     
   4 C4             0.1816    -1.0958    -4.1356 C.2     
   5 C5             0.6528    -0.7912    -2.8341 C.ar    
   6 C6             1.7497    -1.4735    -2.2741 C.ar    
   7 N7             2.1823    -1.1905    -1.0731 N.ar    
   8 C8             1.6149    -0.2440    -0.3103 C.ar    
   9 C9             0.5056     0.4936    -0.7931 C.ar    
  10 C10            0.0124     0.2110    -2.0889 C.ar    
  11 C11           -0.0797     1.4768     0.0096 C.ar    
  12 C12            0.4342     1.7202     1.2754 C.ar    
  13 C13            1.5336     0.9851     1.7458 C.ar    
  14 C14            2.1127     0.0266     0.9753 C.ar    
  15 O15           -2.4523     1.2021    -4.3105 O.2     
  16 C16           -0.1783     2.7580     2.1316 C.2     
  17 C17           -1.6850     1.8868    -1.8690 C.ar    
  18 C18           -1.2315     3.1978    -1.9436 C.ar    
  19 C19           -1.8526     4.1858    -1.2070 C.ar    
  20 C20           -2.9315     3.8693    -0.3907 C.ar    
  21 C21           -3.3847     2.5584    -0.3162 C.ar    
  22 C22           -2.7666     1.5712    -1.0572 C.ar    
  23 N23           -3.5604     4.8699     0.3559 N.3     
  24 N24           -1.4105     3.3330     1.9230 N.pl3   
  25 C25           -4.9020     5.1549    -0.1704 C.3     
  26 C26           -5.6242     6.1193     0.7763 C.3     
  27 N27           -4.7719     7.3007     0.9793 N.am    
  28 C28           -3.3714     7.0886     1.3751 C.3     
  29 C29           -2.7378     6.0860     0.4048 C.3     
  30 C30           -5.2615     8.5446     0.8075 C.2     
  31 O31           -6.4191     8.7010     0.4813 O.2     
  32 C32           -4.3705     9.7411     1.0207 C.3     
  33 C33           -5.1664    11.0221     0.7628 C.3     
  34 C34           -1.6659     4.2607     2.9118 C.ar    
  35 C35           -0.5548     4.2716     3.7755 C.ar    
  36 C36            0.3860     3.2854     3.2469 C.2     
  37 C37           -2.7409     5.1052     3.1682 C.ar    
  38 C38           -2.7133     5.9438     4.2603 C.ar    
  39 C39           -1.6155     5.9573     5.1174 C.ar    
  40 C40           -0.5383     5.1275     4.8813 C.ar    
  41 O41           -1.6050     6.7917     6.1912 O.3     
  42 C42           -4.5546     2.2148     0.5695 C.3     
  43 F43           -4.1830     1.2028     1.4611 F       
  44 F44           -4.9444     3.3498     1.2885 F       
  45 F45           -5.6224     1.7727    -0.2189 F       
  46 H46           -1.2499    -0.6293    -5.6200 H       
  47 H47            0.6596    -1.8639    -4.7254 H       
  48 H48            2.2426    -2.2451    -2.8469 H       
  49 H49           -0.9252     2.0428    -0.3526 H       
  50 H50            1.9251     1.1842     2.7325 H       
  51 H51            2.9578    -0.5297     1.3532 H       
  52 H52           -0.3927     3.4437    -2.5779 H       
  53 H53           -1.4998     5.2049    -1.2648 H       
  54 H54           -3.1218     0.5528    -1.0027 H       
  55 H55           -2.0095     3.1187     1.1908 H       
  56 H56           -4.8165     5.6097    -1.1573 H       
  57 H57           -5.4681     4.2264    -0.2452 H       
  58 H58           -6.5731     6.4239     0.3348 H       
  59 H59           -5.8031     5.6282     1.7329 H       
  60 H60           -2.8308     8.0341     1.3294 H       
  61 H61           -3.3337     6.6907     2.3891 H       
  62 H62           -1.7344     5.8329     0.7471 H       
  63 H63           -2.6824     6.5279    -0.5901 H       
  64 H64           -4.0029     9.7422     2.0469 H       
  65 H65           -3.5266     9.6930     0.3326 H       
  66 H66           -4.5219    11.8876     0.9170 H       
  67 H67           -5.5339    11.0211    -0.2634 H       
  68 H68           -6.0103    11.0703     1.4510 H       
  69 H69            1.3499     3.0300     3.6616 H       
  70 H70           -3.5974     5.1037     2.5104 H       
  71 H71           -3.5509     6.5975     4.4539 H       
  72 H72            0.3123     5.1390     5.5467 H       
  73 H73           -1.9787     6.4039     6.9943 H       
@<TRIPOS>BOND
   1    1    2 am
   2    1   10 1
   3    1   17 1
   4    2    3 1
   5    2   15 2
   6    3    4 2
   7    3   46 1
   8    4    5 1
   9    4   47 1
  10    5    6 ar
  11    5   10 ar
  12    6    7 ar
  13    6   48 1
  14    7    8 ar
  15    8    9 ar
  16    8   14 ar
  17    9   10 ar
  18    9   11 ar
  19   11   12 ar
  20   11   49 1
  21   12   13 ar
  22   12   16 1
  23   13   14 ar
  24   13   50 1
  25   14   51 1
  26   16   24 1
  27   16   36 2
  28   17   18 ar
  29   17   22 ar
  30   18   19 ar
  31   18   52 1
  32   19   20 ar
  33   19   53 1
  34   20   21 ar
  35   20   23 1
  36   21   22 ar
  37   21   42 1
  38   22   54 1
  39   23   25 1
  40   23   29 1
  41   24   34 1
  42   24   55 1
  43   25   26 1
  44   25   56 1
  45   25   57 1
  46   26   27 1
  47   26   58 1
  48   26   59 1
  49   27   28 1
  50   27   30 am
  51   28   29 1
  52   28   60 1
  53   28   61 1
  54   29   62 1
  55   29   63 1
  56   30   31 2
  57   30   32 1
  58   32   33 1
  59   32   64 1
  60   32   65 1
  61   33   66 1
  62   33   67 1
  63   33   68 1
  64   34   35 ar
  65   34   37 ar
  66   35   36 1
  67   35   40 ar
  68   36   69 1
  69   37   38 ar
  70   37   70 1
  71   38   39 ar
  72   38   71 1
  73   39   40 ar
  74   39   41 1
  75   40   72 1
  76   41   73 1
  77   42   43 1
  78   42   44 1
  79   42   45 1

#	End of record

