#	Name: ASD04880127
#	Creating user name:	WinNT
#	Creation time:	15. 06. 2019 20:52

#	Modifying user name:	WinNT
#	Modification time:	15. 06. 2019 20:52

#	Program:	/corina/corina34_cracker 3.40 0067  02.08.2006

@<TRIPOS>MOLECULE
ASD04880127
  47   49    0    0    0
SMALL
NO_CHARGES


@<TRIPOS>ATOM
   1 C1            -0.0144     1.2119     0.0087 C.2     
   2 O2             0.0104    -0.0037     0.0313 O.2     
   3 N3             1.1379     1.9085    -0.0485 N.am    
   4 N4             1.2432     3.2906    -0.1905 N.2     
   5 C5             2.4557     3.7259    -0.2190 C.2     
   6 C6             3.4131     2.5633    -0.0851 C.3     
   7 C7             2.4902     1.3343     0.0353 C.3     
   8 C8             4.3011     2.4536    -1.3262 C.3     
   9 C9             4.2667     2.7134     1.1757 C.3     
  10 C10            2.8489     5.1396    -0.3608 C.ar    
  11 C11            1.8702     6.1307    -0.4772 C.ar    
  12 C12            2.2444     7.4543    -0.6099 C.ar    
  13 C13            3.5947     7.7984    -0.6280 C.ar    
  14 C14            4.5661     6.8153    -0.5126 C.ar    
  15 C15            4.2004     5.4926    -0.3735 C.ar    
  16 O16            3.9607     9.1010    -0.7596 O.3     
  17 C17            5.3614     9.3834    -0.7706 C.3     
  18 O18            1.2948     8.4212    -0.7233 O.3     
  19 C19           -0.0695     7.9968    -0.6975 C.3     
  20 C20           -1.3079     1.9248     0.0377 C.ar    
  21 C21           -2.5053     1.2098    -0.0459 C.ar    
  22 C22           -3.7123     1.8849    -0.0175 C.ar    
  23 C23           -3.7333     3.2654     0.0930 C.ar    
  24 C24           -2.5496     3.9770     0.1760 C.ar    
  25 C25           -1.3393     3.3158     0.1547 C.ar    
  26 F26           -4.8722     1.1968    -0.0981 F       
  27 Cl27          -2.4783    -0.5204    -0.1855 Cl      
  28 H28            2.6364     0.8353     0.9933 H       
  29 H29            2.6652     0.6431    -0.7891 H       
  30 H30            4.8941     3.3623    -1.4300 H       
  31 H31            4.9657     1.5959    -1.2228 H       
  32 H32            3.6762     2.3246    -2.2099 H       
  33 H33            3.6175     2.7669     2.0497 H       
  34 H34            4.9314     1.8546     1.2689 H       
  35 H35            4.8592     3.6257     1.1068 H       
  36 H36            0.8241     5.8626    -0.4637 H       
  37 H37            5.6114     7.0864    -0.5275 H       
  38 H38            4.9588     4.7296    -0.2790 H       
  39 H39            5.8072     9.0470     0.1655 H       
  40 H40            5.8307     8.8616    -1.6046 H       
  41 H41            5.5148    10.4569    -0.8810 H       
  42 H42           -0.7218     8.8644    -0.7966 H       
  43 H43           -0.2517     7.3090    -1.5232 H       
  44 H44           -0.2756     7.4932     0.2470 H       
  45 H45           -4.6778     3.7888     0.1141 H       
  46 H46           -2.5736     5.0534     0.2620 H       
  47 H47           -0.4171     3.8736     0.2238 H       
@<TRIPOS>BOND
   1    1    2 2
   2    1    3 am
   3    1   20 1
   4    3    4 1
   5    3    7 1
   6    4    5 2
   7    5    6 1
   8    5   10 1
   9    6    7 1
  10    6    8 1
  11    6    9 1
  12    7   28 1
  13    7   29 1
  14    8   30 1
  15    8   31 1
  16    8   32 1
  17    9   33 1
  18    9   34 1
  19    9   35 1
  20   10   11 ar
  21   10   15 ar
  22   11   12 ar
  23   11   36 1
  24   12   13 ar
  25   12   18 1
  26   13   14 ar
  27   13   16 1
  28   14   15 ar
  29   14   37 1
  30   15   38 1
  31   16   17 1
  32   17   39 1
  33   17   40 1
  34   17   41 1
  35   18   19 1
  36   19   42 1
  37   19   43 1
  38   19   44 1
  39   20   21 ar
  40   20   25 ar
  41   21   22 ar
  42   21   27 1
  43   22   23 ar
  44   22   26 1
  45   23   24 ar
  46   23   45 1
  47   24   25 ar
  48   24   46 1
  49   25   47 1

#	End of record

