#	Name: ASD03930238
#	Creating user name:	WinNT
#	Creation time:	15. 06. 2019 20:47

#	Modifying user name:	WinNT
#	Modification time:	15. 06. 2019 20:47

#	Program:	/corina/corina34_cracker 3.40 0067  02.08.2006

@<TRIPOS>MOLECULE
ASD03930238
  47   49    0    0    0
SMALL
NO_CHARGES


@<TRIPOS>ATOM
   1 C1            -0.0187     1.5258     0.0104 C.3     
   2 C2             0.0021    -0.0041     0.0020 C.3     
   3 C3             0.7074    -0.4901    -1.2379 C.2     
   4 C4             0.1029    -0.7523    -2.4504 C.2     
   5 C5            -1.2881    -0.6170    -2.7628 C.1     
   6 N6            -2.3915    -0.5097    -3.0107 N.1     
   7 C7             1.1683    -1.1969    -3.3559 C.2     
   8 C8             2.3388    -1.1656    -2.6071 C.2     
   9 C9             3.6729    -1.5266    -3.0845 C.2     
  10 O10            4.7311    -1.4515    -2.2505 O.3     
  11 O11            3.8289    -1.8947    -4.2335 O.2     
  12 N12            2.0244    -0.7309    -1.3393 N.pl3   
  13 C13            2.9911    -0.5578    -0.2522 C.3     
  14 C14            1.0261    -1.5959    -4.7728 C.ar    
  15 C15            1.2852    -2.9135    -5.1569 C.ar    
  16 C16            1.1522    -3.2844    -6.4758 C.ar    
  17 C17            0.7590    -2.3441    -7.4292 C.ar    
  18 C18            0.4999    -1.0273    -7.0459 C.ar    
  19 C19            0.6270    -0.6566    -5.7263 C.ar    
  20 C20            0.6169    -2.7436    -8.8487 C.ar    
  21 C21            1.6404    -3.4424    -9.4851 C.ar    
  22 C22            1.5030    -3.8128   -10.8076 C.ar    
  23 C23            0.3517    -3.4933   -11.5065 C.ar    
  24 C24           -0.6708    -2.8008   -10.8877 C.ar    
  25 C25           -0.5502    -2.4257    -9.5566 C.ar    
  26 S26           -1.8555    -1.5482    -8.7625 S.3     
  27 C27           -3.0994    -1.3926   -10.0737 C.3     
  28 H28            1.0039     1.9031     0.0027 H       
  29 H29           -0.5459     1.8868    -0.8726 H       
  30 H30           -0.5289     1.8773     0.9072 H       
  31 H31            0.5293    -0.3651     0.8851 H       
  32 H32           -1.0205    -0.3814     0.0098 H       
  33 H33            5.5703    -1.7098    -2.6556 H       
  34 H34            3.0755    -1.4876     0.3103 H       
  35 H35            3.9636    -0.2957    -0.6690 H       
  36 H36            2.6534     0.2386     0.4110 H       
  37 H37            1.5903    -3.6410    -4.4194 H       
  38 H38            1.3526    -4.3032    -6.7730 H       
  39 H39            0.1959    -0.3000    -7.7842 H       
  40 H40            0.4222     0.3613    -5.4291 H       
  41 H41            2.5407    -3.6938    -8.9442 H       
  42 H42            2.2976    -4.3542   -11.2995 H       
  43 H43            0.2525    -3.7866   -12.5411 H       
  44 H44           -1.5665    -2.5546   -11.4387 H       
  45 H45           -3.9672    -0.8565    -9.6895 H       
  46 H46           -2.6750    -0.8426   -10.9136 H       
  47 H47           -3.4033    -2.3853   -10.4058 H       
@<TRIPOS>BOND
   1    1    2 1
   2    1   28 1
   3    1   29 1
   4    1   30 1
   5    2    3 1
   6    2   31 1
   7    2   32 1
   8    3   12 1
   9    3    4 2
  10    4    5 1
  11    4    7 1
  12    5    6 3
  13    7    8 2
  14    7   14 1
  15    8    9 1
  16    8   12 1
  17    9   10 1
  18    9   11 2
  19   10   33 1
  20   12   13 1
  21   13   34 1
  22   13   35 1
  23   13   36 1
  24   14   19 ar
  25   14   15 ar
  26   15   16 ar
  27   15   37 1
  28   16   17 ar
  29   16   38 1
  30   17   18 ar
  31   17   20 1
  32   18   19 ar
  33   18   39 1
  34   19   40 1
  35   20   25 ar
  36   20   21 ar
  37   21   22 ar
  38   21   41 1
  39   22   23 ar
  40   22   42 1
  41   23   24 ar
  42   23   43 1
  43   24   25 ar
  44   24   44 1
  45   25   26 1
  46   26   27 1
  47   27   45 1
  48   27   46 1
  49   27   47 1

#	End of record

