#	Name: ASD09120022
#	Creating user name:	WinNT
#	Creation time:	15. 06. 2019 21:21

#	Modifying user name:	WinNT
#	Modification time:	15. 06. 2019 21:21

#	Program:	/corina/corina34_cracker 3.40 0067  02.08.2006

@<TRIPOS>MOLECULE
ASD09120022
  37   39    0    0    0
SMALL
NO_CHARGES


@<TRIPOS>ATOM
   1 C1             0.0002     1.3748     0.0589 C.ar    
   2 C2             0.0233    -0.0039     0.0623 C.ar    
   3 C3             1.0717    -0.6839    -0.5333 C.ar    
   4 C4             2.1031     0.0128    -1.1356 C.ar    
   5 C5             2.0933     1.3942    -1.1467 C.ar    
   6 C6             1.0379     2.0862    -0.5472 C.ar    
   7 N7            -1.0758    -0.7589     0.7049 N.pl3   
   8 O8            -1.9988    -0.1623     1.2298 O.2     
   9 O9            -1.0571    -1.9767     0.7088 O.2     
  10 C10            1.0195     3.5633    -0.5550 C.2     
  11 O11            1.9242     4.1796    -1.0834 O.2     
  12 N12           -0.0004     4.2276     0.0238 N.am    
  13 C13            0.0397     5.6140     0.1222 C.ar    
  14 Cl14           3.3890     2.2679    -1.9027 Cl      
  15 C15            1.2455     7.6684     0.4029 C.ar    
  16 C16            1.2382     6.2826     0.3089 C.ar    
  17 C17           -1.1416     6.3866     0.0289 C.ar    
  18 N18            0.1418     8.3736     0.3203 N.ar    
  19 C19           -2.3936     5.7847    -0.1647 C.ar    
  20 C20           -3.5105     6.5604    -0.2495 C.ar    
  21 C21           -3.4277     7.9461    -0.1465 C.ar    
  22 C22           -2.2256     8.5665     0.0419 C.ar    
  23 C23           -1.0488     7.7944     0.1347 C.ar    
  24 O24           -2.1636     9.9203     0.1397 O.3     
  25 C25           -3.3966    10.6352     0.0367 C.3     
  26 H26           -0.8209     1.9034     0.5203 H       
  27 H27            1.0844    -1.7638    -0.5271 H       
  28 H28            2.9181    -0.5241    -1.5981 H       
  29 H29           -0.7624     3.7385     0.3718 H       
  30 H30            2.1855     8.1798     0.5488 H       
  31 H31            2.1627     5.7290     0.3814 H       
  32 H32           -2.4719     4.7107    -0.2467 H       
  33 H33           -4.4730     6.0939    -0.3990 H       
  34 H34           -4.3273     8.5395    -0.2169 H       
  35 H35           -4.0701    10.3146     0.8315 H       
  36 H36           -3.2058    11.7042     0.1313 H       
  37 H37           -3.8545    10.4322    -0.9314 H       
@<TRIPOS>BOND
   1    1    2 ar
   2    1    6 ar
   3    1   26 1
   4    2    3 ar
   5    2    7 1
   6    3    4 ar
   7    3   27 1
   8    4    5 ar
   9    4   28 1
  10    5    6 ar
  11    5   14 1
  12    6   10 1
  13    7    8 2
  14    7    9 2
  15   10   11 2
  16   10   12 am
  17   12   13 1
  18   12   29 1
  19   13   17 ar
  20   13   16 ar
  21   15   16 ar
  22   15   18 ar
  23   15   30 1
  24   16   31 1
  25   17   19 ar
  26   17   23 ar
  27   18   23 ar
  28   19   20 ar
  29   19   32 1
  30   20   21 ar
  31   20   33 1
  32   21   22 ar
  33   21   34 1
  34   22   23 ar
  35   22   24 1
  36   24   25 1
  37   25   35 1
  38   25   36 1
  39   25   37 1

#	End of record

