#	Name: ASD01881779
#	Creating user name:	WinNT
#	Creation time:	15. 06. 2019 19:43

#	Modifying user name:	WinNT
#	Modification time:	15. 06. 2019 19:43

#	Program:	/corina/corina34_cracker 3.40 0067  02.08.2006

@<TRIPOS>MOLECULE
ASD01881779
  49   51    0    0    0
SMALL
NO_CHARGES


@<TRIPOS>ATOM
   1 C1            -0.0184     1.5028     0.0103 C.2     
   2 C2             0.0021    -0.0041     0.0020 C.3     
   3 C3             1.4513    -0.4944    -0.0145 C.3     
   4 C4             1.4720    -2.0242    -0.0229 C.3     
   5 O5             1.0197     2.1211     0.0037 O.2     
   6 O6            -1.1898     2.1580     0.0194 O.3     
   7 O7             2.8256    -2.4822    -0.0383 O.3     
   8 N8             3.8897    -7.8553    -0.0768 N.pl3   
   9 N9             5.2873    -7.7359    -0.0901 N.2     
  10 N10            5.6107    -6.4909    -0.0871 N.2     
  11 C11            4.5052    -5.7197    -0.0721 C.ar    
  12 C12            3.3886    -6.5735    -0.0652 C.ar    
  13 C13            4.3059    -4.3322    -0.0623 C.ar    
  14 C14            3.0220    -3.8278    -0.0474 C.ar    
  15 C15            1.9255    -4.6865    -0.0410 C.ar    
  16 C16            2.1044    -6.0412    -0.0490 C.ar    
  17 C17            3.1159    -9.0992    -0.0807 C.3     
  18 C18            2.8610    -9.5459     1.3602 C.3     
  19 C19            1.9650   -10.7677     1.5731 C.3     
  20 C20            3.4733   -10.8750     1.8067 C.3     
  21 Br21           5.7887    -3.1586    -0.0706 Br      
  22 C22           -1.1335     3.6089     0.0270 C.3     
  23 C23           -0.3989     4.0974    -1.2231 C.3     
  24 C24           -2.5551     4.1744     0.0369 C.3     
  25 C25           -0.3871     4.0838     1.2754 C.3     
  26 H26           -0.4983    -0.3791     0.8948 H       
  27 H27           -0.5153    -0.3696    -0.8850 H       
  28 H28            1.9516    -0.1193    -0.9073 H       
  29 H29            1.9686    -0.1289     0.8726 H       
  30 H30            0.9717    -2.3993     0.8699 H       
  31 H31            0.9547    -2.3897    -0.9099 H       
  32 H32            0.9257    -4.2784    -0.0289 H       
  33 H33            1.2476    -6.6987    -0.0438 H       
  34 H34            2.1632    -8.9329    -0.5835 H       
  35 H35            3.6745    -9.8729    -0.6075 H       
  36 H36            2.8035    -8.7450     2.0975 H       
  37 H37            1.3184   -10.7709     2.4506 H       
  38 H38            1.5572   -11.2533     0.6866 H       
  39 H39            4.0577   -11.4313     1.0738 H       
  40 H40            3.8189   -10.9488     2.8378 H       
  41 H41           -0.9307     3.7591    -2.1124 H       
  42 H42           -0.3567     5.1865    -1.2173 H       
  43 H43            0.6139     3.6945    -1.2301 H       
  44 H44           -3.0784     3.8265     0.9275 H       
  45 H45           -2.5128     5.2636     0.0426 H       
  46 H46           -3.0869     3.8361    -0.8525 H       
  47 H47            0.6257     3.6809     1.2684 H       
  48 H48           -0.3448     5.1730     1.2811 H       
  49 H49           -0.9104     3.7358     2.1659 H       
@<TRIPOS>BOND
   1    1    2 1
   2    1    5 2
   3    1    6 1
   4    2    3 1
   5    2   26 1
   6    2   27 1
   7    3    4 1
   8    3   28 1
   9    3   29 1
  10    4    7 1
  11    4   30 1
  12    4   31 1
  13    6   22 1
  14    7   14 1
  15    8    9 1
  16    8   12 1
  17    8   17 1
  18    9   10 2
  19   10   11 1
  20   11   12 ar
  21   11   13 ar
  22   12   16 ar
  23   13   14 ar
  24   13   21 1
  25   14   15 ar
  26   15   16 ar
  27   15   32 1
  28   16   33 1
  29   17   18 1
  30   17   34 1
  31   17   35 1
  32   18   19 1
  33   18   20 1
  34   18   36 1
  35   19   20 1
  36   19   37 1
  37   19   38 1
  38   20   39 1
  39   20   40 1
  40   22   23 1
  41   22   25 1
  42   22   24 1
  43   23   41 1
  44   23   42 1
  45   23   43 1
  46   24   44 1
  47   24   45 1
  48   24   46 1
  49   25   47 1
  50   25   48 1
  51   25   49 1

#	End of record

