#	Name: ASD03540436
#	Creating user name:	WinNT
#	Creation time:	15. 06. 2019 20:43

#	Modifying user name:	WinNT
#	Modification time:	15. 06. 2019 20:43

#	Program:	/corina/corina34_cracker 3.40 0067  02.08.2006

@<TRIPOS>MOLECULE
ASD03540436
  60   62    0    0    0
SMALL
NO_CHARGES


@<TRIPOS>ATOM
   1 C1            -0.0184     1.5028     0.0103 C.2     
   2 C2             0.0021    -0.0041     0.0020 C.3     
   3 C3             1.4513    -0.4944    -0.0145 C.3     
   4 C4             1.4720    -2.0242    -0.0229 C.3     
   5 O5             1.0197     2.1211     0.0037 O.2     
   6 O6            -1.1898     2.1580     0.0194 O.3     
   7 N7             4.7662    -3.1409     1.1909 N.am    
   8 C8             3.4948    -2.7111     1.1236 C.2     
   9 N9             2.8597    -2.4937    -0.0386 N.am    
  10 C10            3.4763    -2.7002    -1.2227 C.2     
  11 C11            4.8729    -3.1728    -1.2086 C.ar    
  12 C12            5.5751    -3.4088    -2.3838 C.ar    
  13 C13            6.8939    -3.8556    -2.3116 C.ar    
  14 C14            7.4979    -4.0621    -1.0652 C.ar    
  15 C15            6.8070    -3.8299     0.0904 C.ar    
  16 C16            5.4922    -3.3845     0.0381 C.ar    
  17 O17            2.8949    -2.5022    -2.2720 O.2     
  18 O18            2.8936    -2.5099     2.1609 O.2     
  19 C19            5.3922    -3.3491     2.4989 C.3     
  20 C20            7.6544    -4.1118    -3.5510 C.2     
  21 N21            8.9292    -4.5437    -3.4823 N.am    
  22 O22            7.1306    -3.9331    -4.6335 O.2     
  23 C23            9.6838    -4.7978    -4.7120 C.3     
  24 C24           11.0719    -5.2684    -4.3614 C.ar    
  25 C25           11.3232    -6.6187    -4.2022 C.ar    
  26 C26           12.5947    -7.0526    -3.8808 C.ar    
  27 C27           13.6199    -6.1322    -3.7179 C.ar    
  28 C28           13.3652    -4.7779    -3.8782 C.ar    
  29 C29           12.0932    -4.3496    -4.2051 C.ar    
  30 O30           14.8716    -6.5565    -3.4013 O.3     
  31 C31           15.8776    -5.5531    -3.2490 C.3     
  32 C32           -1.1335     3.6089     0.0270 C.3     
  33 C33           -2.5551     4.1744     0.0369 C.3     
  34 H34           -0.4983    -0.3791     0.8948 H       
  35 H35           -0.5153    -0.3696    -0.8850 H       
  36 H36            1.9516    -0.1193    -0.9073 H       
  37 H37            1.9686    -0.1289     0.8726 H       
  38 H38            0.9717    -2.3993     0.8699 H       
  39 H39            0.9547    -2.3897    -0.9099 H       
  40 H40            5.1046    -3.2484    -3.3426 H       
  41 H41            8.5196    -4.4086    -1.0170 H       
  42 H42            7.2835    -3.9931     1.0457 H       
  43 H43            4.6787    -3.1056     3.2861 H       
  44 H44            5.6968    -4.3913     2.5942 H       
  45 H45            6.2670    -2.7052     2.5896 H       
  46 H46            9.3471    -4.6862    -2.6186 H       
  47 H47            9.1770    -5.5652    -5.2972 H       
  48 H48            9.7480    -3.8793    -5.2953 H       
  49 H49           10.5247    -7.3347    -4.3287 H       
  50 H50           12.7905    -8.1073    -3.7561 H       
  51 H51           14.1616    -4.0595    -3.7519 H       
  52 H52           11.8954    -3.2958    -4.3347 H       
  53 H53           15.9832    -4.9999    -4.1822 H       
  54 H54           15.5900    -4.8683    -2.4513 H       
  55 H55           16.8270    -6.0258    -2.9974 H       
  56 H56           -0.6017     3.9472     0.9164 H       
  57 H57           -0.6102     3.9569    -0.8636 H       
  58 H58           -2.5128     5.2636     0.0426 H       
  59 H59           -3.0869     3.8361    -0.8525 H       
  60 H60           -3.0784     3.8265     0.9275 H       
@<TRIPOS>BOND
   1    1    2 1
   2    1    5 2
   3    1    6 1
   4    2    3 1
   5    2   34 1
   6    2   35 1
   7    3    4 1
   8    3   36 1
   9    3   37 1
  10    4    9 1
  11    4   38 1
  12    4   39 1
  13    6   32 1
  14    7    8 am
  15    7   16 1
  16    7   19 1
  17    8    9 am
  18    8   18 2
  19    9   10 am
  20   10   11 1
  21   10   17 2
  22   11   12 ar
  23   11   16 ar
  24   12   13 ar
  25   12   40 1
  26   13   14 ar
  27   13   20 1
  28   14   15 ar
  29   14   41 1
  30   15   16 ar
  31   15   42 1
  32   19   43 1
  33   19   44 1
  34   19   45 1
  35   20   21 am
  36   20   22 2
  37   21   23 1
  38   21   46 1
  39   23   24 1
  40   23   47 1
  41   23   48 1
  42   24   25 ar
  43   24   29 ar
  44   25   26 ar
  45   25   49 1
  46   26   27 ar
  47   26   50 1
  48   27   28 ar
  49   27   30 1
  50   28   29 ar
  51   28   51 1
  52   29   52 1
  53   30   31 1
  54   31   53 1
  55   31   54 1
  56   31   55 1
  57   32   33 1
  58   32   56 1
  59   32   57 1
  60   33   58 1
  61   33   59 1
  62   33   60 1

#	End of record

