#	Name: ASD01885485
#	Creating user name:	WinNT
#	Creation time:	15. 06. 2019 19:49

#	Modifying user name:	WinNT
#	Modification time:	15. 06. 2019 19:49

#	Program:	/corina/corina34_cracker 3.40 0067  02.08.2006

@<TRIPOS>MOLECULE
ASD01885485
  52   55    0    0    0
SMALL
NO_CHARGES


@<TRIPOS>ATOM
   1 C1            -0.0146     1.3066     0.1075 C.ar    
   2 C2             0.0282    -0.0859     0.1906 C.ar    
   3 N3            -1.0735    -0.8712     0.2808 N.2     
   4 C4            -2.1652    -0.7284    -0.3771 C.2     
   5 C5            -2.3638     0.4079    -1.3457 C.3     
   6 C6            -2.2975     1.7010    -0.5731 C.2     
   7 N7            -1.1927     2.0406     0.0901 N.am    
   8 C8             1.1779     2.0244     0.0308 C.ar    
   9 C9             2.3988     1.3700     0.0313 C.ar    
  10 C10            2.4422    -0.0196     0.1085 C.ar    
  11 C11            1.2751    -0.7385     0.1871 C.ar    
  12 C12           -3.2536    -1.7020    -0.1806 C.ar    
  13 O13           -3.2591     2.4399    -0.5563 O.2     
  14 C14           -3.1095    -2.7741     0.7109 C.ar    
  15 C15           -4.1542    -3.6614     0.8642 C.ar    
  16 N16           -5.2762    -3.5119     0.1864 N.ar    
  17 C17           -5.4552    -2.5174    -0.6633 C.ar    
  18 C18           -4.4644    -1.5790    -0.8753 C.ar    
  19 Cl19          -6.9588    -2.3837    -1.5206 Cl      
  20 N20            3.5839     2.1026    -0.0460 N.pl3   
  21 C21            4.8095     1.4554     0.0627 C.2     
  22 C22            5.3374     1.2273     1.2628 C.2     
  23 N23            4.6875     1.7781     2.4748 N.pl3   
  24 O24            3.6240     2.3646     2.3824 O.2     
  25 O25            5.2166     1.6444     3.5637 O.2     
  26 N26            5.4834     1.0465    -1.0822 N.pl3   
  27 C27            4.9595     1.3962    -2.4049 C.3     
  28 C28            5.9308     0.9454    -3.4652 C.ar    
  29 C29            5.8201    -0.3198    -4.0110 C.ar    
  30 C30            6.7111    -0.7334    -4.9837 C.ar    
  31 C31            7.7125     0.1184    -5.4108 C.ar    
  32 C32            7.8227     1.3839    -4.8656 C.ar    
  33 C33            6.9290     1.7991    -3.8961 C.ar    
  34 H34           -1.5776     0.3896    -2.1005 H       
  35 H35           -3.3379     0.3158    -1.8260 H       
  36 H36           -1.2134     2.8639     0.6027 H       
  37 H37            1.1496     3.1024    -0.0300 H       
  38 H38            3.3932    -0.5315     0.1070 H       
  39 H39            1.3143    -1.8161     0.2467 H       
  40 H40           -2.1940    -2.9035     1.2691 H       
  41 H41           -4.0522    -4.4907     1.5485 H       
  42 H42           -4.6173    -0.7677    -1.5716 H       
  43 H43            3.5526     3.0634    -0.1755 H       
  44 H44            6.2397     0.6406     1.3532 H       
  45 H45            6.3007     0.5297    -1.0054 H       
  46 H46            3.9998     0.9025    -2.5577 H       
  47 H47            4.8268     2.4762    -2.4692 H       
  48 H48            5.0377    -0.9853    -3.6773 H       
  49 H49            6.6250    -1.7221    -5.4096 H       
  50 H50            8.4090    -0.2049    -6.1702 H       
  51 H51            8.6053     2.0493    -5.1991 H       
  52 H52            7.0151     2.7878    -3.4702 H       
@<TRIPOS>BOND
   1    1    2 ar
   2    1    8 ar
   3    1    7 1
   4    2    3 1
   5    2   11 ar
   6    3    4 2
   7    4    5 1
   8    4   12 1
   9    5    6 1
  10    5   34 1
  11    5   35 1
  12    6    7 am
  13    6   13 2
  14    7   36 1
  15    8    9 ar
  16    8   37 1
  17    9   10 ar
  18    9   20 1
  19   10   11 ar
  20   10   38 1
  21   11   39 1
  22   12   14 ar
  23   12   18 ar
  24   14   15 ar
  25   14   40 1
  26   15   16 ar
  27   15   41 1
  28   16   17 ar
  29   17   18 ar
  30   17   19 1
  31   18   42 1
  32   20   21 1
  33   20   43 1
  34   21   22 2
  35   21   26 1
  36   22   23 1
  37   22   44 1
  38   23   24 2
  39   23   25 2
  40   26   27 1
  41   26   45 1
  42   27   28 1
  43   27   46 1
  44   27   47 1
  45   28   29 ar
  46   28   33 ar
  47   29   30 ar
  48   29   48 1
  49   30   31 ar
  50   30   49 1
  51   31   32 ar
  52   31   50 1
  53   32   33 ar
  54   32   51 1
  55   33   52 1

#	End of record

