#	Name: ASD03430714
#	Creating user name:	WinNT
#	Creation time:	15. 06. 2019 20:41

#	Modifying user name:	WinNT
#	Modification time:	15. 06. 2019 20:41

#	Program:	/corina/corina34_cracker 3.40 0067  02.08.2006

@<TRIPOS>MOLECULE
ASD03430714
  51   56    0    0    0
SMALL
NO_CHARGES


@<TRIPOS>ATOM
   1 C1            -0.0168     1.3847     0.0097 C.ar    
   2 C2             0.0021    -0.0041     0.0020 C.ar    
   3 C3             1.2001    -0.6785    -0.0138 C.ar    
   4 C4             2.4149     0.0119    -0.0123 C.ar    
   5 C5             2.4077     1.3974    -0.0097 C.ar    
   6 C6             1.1973     2.0909     0.0019 C.ar    
   7 O7             3.4712    -0.8510    -0.0004 O.3     
   8 C8             1.5427    -2.1444    -0.0485 C.3     
   9 C9             3.0281    -2.1509    -0.4343 C.3     
  10 C10            0.4073    -3.8531     1.0056 C.ar    
  11 C11            1.3031    -2.8198     1.2689 C.ar    
  12 C12            0.7051    -2.8989    -1.0409 C.2     
  13 N13            0.0772    -3.8722    -0.3517 N.am    
  14 O14            0.6118    -2.6760    -2.2295 O.2     
  15 C15            1.7721    -2.6084     2.5463 C.ar    
  16 C16            1.3544    -3.4248     3.5822 C.ar    
  17 C17            0.4647    -4.4537     3.3321 C.ar    
  18 C18           -0.0076    -4.6701     2.0544 C.ar    
  19 C19           -0.8441    -4.8380    -0.9557 C.3     
  20 C20           -2.2471    -4.2898    -0.9106 C.ar    
  21 C21           -2.7241    -3.5272    -1.9607 C.ar    
  22 C22           -4.0099    -3.0235    -1.9218 C.ar    
  23 C23           -4.8227    -3.2836    -0.8280 C.ar    
  24 C24           -4.3417    -4.0491     0.2243 C.ar    
  25 C25           -3.0571    -4.5552     0.1780 C.ar    
  26 O26           -1.0083     2.2993     0.0187 O.3     
  27 N27           -0.4476     3.5968     0.0213 N.2     
  28 C28            0.8471     3.5147     0.0107 C.2     
  29 C29            1.8139     4.6708     0.0100 C.3     
  30 O30           -6.0878    -2.7889    -0.7872 O.3     
  31 C31           -6.8678    -3.0966     0.3700 C.3     
  32 H32           -0.9265    -0.5555     0.0089 H       
  33 H33            3.3407     1.9414    -0.0158 H       
  34 H34            3.1473    -2.2603    -1.5122 H       
  35 H35            3.5622    -2.9388     0.0969 H       
  36 H36            2.4665    -1.8042     2.7397 H       
  37 H37            1.7220    -3.2588     4.5840 H       
  38 H38            0.1386    -5.0908     4.1408 H       
  39 H39           -0.7022    -5.4756     1.8667 H       
  40 H40           -0.5564    -5.0155    -1.9919 H       
  41 H41           -0.8024    -5.7756    -0.4013 H       
  42 H42           -2.0909    -3.3247    -2.8118 H       
  43 H43           -4.3819    -2.4275    -2.7420 H       
  44 H44           -4.9726    -4.2529     1.0769 H       
  45 H45           -2.6822    -5.1512     0.9970 H       
  46 H46            2.0546     4.9437     1.0374 H       
  47 H47            2.7258     4.3814    -0.5123 H       
  48 H48            1.3605     5.5233    -0.4957 H       
  49 H49           -6.9730    -4.1778     0.4602 H       
  50 H50           -6.3712    -2.7046     1.2576 H       
  51 H51           -7.8539    -2.6422     0.2748 H       
@<TRIPOS>BOND
   1    1    2 ar
   2    1    6 ar
   3    1   26 1
   4    2    3 ar
   5    2   32 1
   6    3    4 ar
   7    3    8 1
   8    4    5 ar
   9    4    7 1
  10    5    6 ar
  11    5   33 1
  12    6   28 1
  13    7    9 1
  14    8    9 1
  15    8   11 1
  16    8   12 1
  17    9   34 1
  18    9   35 1
  19   10   11 ar
  20   10   13 1
  21   10   18 ar
  22   11   15 ar
  23   12   13 am
  24   12   14 2
  25   13   19 1
  26   15   16 ar
  27   15   36 1
  28   16   17 ar
  29   16   37 1
  30   17   18 ar
  31   17   38 1
  32   18   39 1
  33   19   20 1
  34   19   40 1
  35   19   41 1
  36   20   21 ar
  37   20   25 ar
  38   21   22 ar
  39   21   42 1
  40   22   23 ar
  41   22   43 1
  42   23   24 ar
  43   23   30 1
  44   24   25 ar
  45   24   44 1
  46   25   45 1
  47   26   27 1
  48   27   28 2
  49   28   29 1
  50   29   46 1
  51   29   47 1
  52   29   48 1
  53   30   31 1
  54   31   49 1
  55   31   50 1
  56   31   51 1

#	End of record

