#	Name: ASD01028756
#	Creating user name:	WinNT
#	Creation time:	15. 06. 2019 18:58

#	Modifying user name:	WinNT
#	Modification time:	15. 06. 2019 18:58

#	Program:	/corina/corina34_cracker 3.40 0067  02.08.2006

@<TRIPOS>MOLECULE
ASD01028756
  35   37    0    0    0
SMALL
NO_CHARGES


@<TRIPOS>ATOM
   1 N1            -0.0157     1.3059     0.0092 N.ar    
   2 C2             0.0021    -0.0041     0.0020 C.ar    
   3 C3             1.2047    -0.7195    -0.0133 C.ar    
   4 C4             2.3983    -0.0476    -0.0211 C.ar    
   5 C5             2.3699     1.3597    -0.0132 C.ar    
   6 N6             3.4995     2.0727    -0.0196 N.ar    
   7 C7             3.4781     3.3843    -0.0120 C.ar    
   8 C8             2.2813     4.0950     0.0036 C.ar    
   9 C9             1.0888     3.4259     0.0114 C.ar    
  10 C10            1.1149     2.0165     0.0022 C.ar    
  11 O11            1.1884    -2.0780    -0.0200 O.3     
  12 C12           -0.0925    -2.7114    -0.0108 C.3     
  13 C13            0.0897    -4.2305    -0.0202 C.3     
  14 N14            0.7414    -4.6533     1.2266 N.3     
  15 C15            0.7203    -6.1213     1.3623 C.3     
  16 C16            2.1830    -6.5867     1.5222 C.3     
  17 C17            2.9011    -5.3117     2.0374 C.3     
  18 C18            2.1468    -4.1965     1.2711 C.3     
  19 F19            2.2736    -7.6193     2.4618 F       
  20 Cl20          -0.4172     4.2892     0.0320 Cl      
  21 H21           -0.9331    -0.5443     0.0084 H       
  22 H22            3.3360    -0.5833    -0.0326 H       
  23 H23            4.4122     3.9262    -0.0176 H       
  24 H24            2.2947     5.1749     0.0100 H       
  25 H25           -0.6373    -2.4164     0.8861 H       
  26 H26           -0.6546    -2.4074    -0.8938 H       
  27 H27           -0.8843    -4.7128    -0.1028 H       
  28 H28            0.7100    -4.5168    -0.8696 H       
  29 H29            0.1429    -6.4041     2.2426 H       
  30 H30            0.2839    -6.5700     0.4700 H       
  31 H31            2.5948    -6.8999     0.5628 H       
  32 H32            2.7741    -5.2001     3.1142 H       
  33 H33            3.9576    -5.3234     1.7696 H       
  34 H34            2.5447    -4.0940     0.2616 H       
  35 H35            2.2215    -3.2505     1.8073 H       
@<TRIPOS>BOND
   1    1    2 ar
   2    1   10 ar
   3    2    3 ar
   4    2   21 1
   5    3    4 ar
   6    3   11 1
   7    4    5 ar
   8    4   22 1
   9    5    6 ar
  10    5   10 ar
  11    6    7 ar
  12    7    8 ar
  13    7   23 1
  14    8    9 ar
  15    8   24 1
  16    9   10 ar
  17    9   20 1
  18   11   12 1
  19   12   13 1
  20   12   25 1
  21   12   26 1
  22   13   14 1
  23   13   27 1
  24   13   28 1
  25   14   15 1
  26   14   18 1
  27   15   16 1
  28   15   29 1
  29   15   30 1
  30   16   17 1
  31   16   19 1
  32   16   31 1
  33   17   18 1
  34   17   32 1
  35   17   33 1
  36   18   34 1
  37   18   35 1

#	End of record

