#	Name: ASD01882797
#	Creating user name:	WinNT
#	Creation time:	15. 06. 2019 19:45

#	Modifying user name:	WinNT
#	Modification time:	15. 06. 2019 19:45

#	Program:	/corina/corina34_cracker 3.40 0067  02.08.2006

@<TRIPOS>MOLECULE
ASD01882797
  50   52    0    0    0
SMALL
NO_CHARGES


@<TRIPOS>ATOM
   1 C1             0.0063     1.4947    -0.1014 C.2     
   2 C2            -0.0978     0.1940     0.0290 C.2     
   3 C3             1.0678    -0.7387     0.1743 C.3     
   4 C4             2.3540    -0.0654    -0.3114 C.3     
   5 N5             2.3951     1.2951     0.2521 N.pl3   
   6 C6             1.3224     2.2205    -0.1396 C.3     
   7 C7             3.3982     1.6841     1.1112 C.2     
   8 C8             3.1051     2.0433     2.4399 C.2     
   9 C9             4.0996     2.4226     3.2718 C.2     
  10 N10            5.3917     2.4672     2.8547 N.am    
  11 C11            5.7322     2.1354     1.5955 C.2     
  12 C12            4.7348     1.7245     0.6798 C.2     
  13 C13            6.4352     2.8851     3.7942 C.3     
  14 C14            6.9782     1.6594     4.5315 C.3     
  15 C15            8.0681     2.0958     5.5127 C.3     
  16 C16            8.6111     0.8701     6.2500 C.3     
  17 O17            6.8993     2.1845     1.2456 O.2     
  18 C18            5.0794     1.3676    -0.6635 C.1     
  19 N19            5.3528     1.0845    -1.7291 N.1     
  20 C20           -1.4545    -0.3921     0.0334 C.ar    
  21 C21           -1.8698    -1.2521    -0.9895 C.ar    
  22 C22           -3.1448    -1.7770    -0.9454 C.ar    
  23 N23           -3.9668    -1.4778     0.0421 N.ar    
  24 C24           -3.6155    -0.6716     1.0259 C.ar    
  25 C25           -2.3579    -0.1070     1.0641 C.ar    
  26 C26           -4.6003    -0.3679     2.1255 C.3     
  27 H27           -0.9006     2.0743    -0.1904 H       
  28 H28            1.1795    -1.0155     1.2226 H       
  29 H29            0.8863    -1.6372    -0.4155 H       
  30 H30            3.2192    -0.6327     0.0315 H       
  31 H31            2.3543    -0.0135    -1.4002 H       
  32 H32            1.5075     2.5862    -1.1496 H       
  33 H33            1.2951     3.0610     0.5539 H       
  34 H34            2.0853     2.0161     2.7944 H       
  35 H35            3.8625     2.6964     4.2892 H       
  36 H36            7.2447     3.3679     3.2467 H       
  37 H37            6.0153     3.5864     4.5152 H       
  38 H38            6.1687     1.1765     5.0790 H       
  39 H39            7.3981     0.9581     3.8105 H       
  40 H40            8.8776     2.5787     4.9652 H       
  41 H41            7.6482     2.7971     6.2337 H       
  42 H42            7.8016     0.3873     6.7975 H       
  43 H43            9.0310     0.1688     5.5290 H       
  44 H44            9.3875     1.1811     6.9490 H       
  45 H45           -1.2024    -1.5008    -1.8014 H       
  46 H46           -3.4746    -2.4416    -1.7302 H       
  47 H47           -2.0772     0.5520     1.8724 H       
  48 H48           -4.4885    -1.0997     2.9256 H       
  49 H49           -4.4102     0.6312     2.5177 H       
  50 H50           -5.6143    -0.4156     1.7285 H       
@<TRIPOS>BOND
   1    1    2 2
   2    1    6 1
   3    1   27 1
   4    2    3 1
   5    2   20 1
   6    3    4 1
   7    3   28 1
   8    3   29 1
   9    4    5 1
  10    4   30 1
  11    4   31 1
  12    5    6 1
  13    5    7 1
  14    6   32 1
  15    6   33 1
  16    7    8 1
  17    7   12 2
  18    8    9 2
  19    8   34 1
  20    9   10 1
  21    9   35 1
  22   10   11 am
  23   10   13 1
  24   11   12 1
  25   11   17 2
  26   12   18 1
  27   13   14 1
  28   13   36 1
  29   13   37 1
  30   14   15 1
  31   14   38 1
  32   14   39 1
  33   15   16 1
  34   15   40 1
  35   15   41 1
  36   16   42 1
  37   16   43 1
  38   16   44 1
  39   18   19 3
  40   20   21 ar
  41   20   25 ar
  42   21   22 ar
  43   21   45 1
  44   22   23 ar
  45   22   46 1
  46   23   24 ar
  47   24   25 ar
  48   24   26 1
  49   25   47 1
  50   26   48 1
  51   26   49 1
  52   26   50 1

#	End of record

