#	Name: ASD07301191
#	Creating user name:	WinNT
#	Creation time:	15. 06. 2019 21:11

#	Modifying user name:	WinNT
#	Modification time:	15. 06. 2019 21:11

#	Program:	/corina/corina34_cracker 3.40 0067  02.08.2006

@<TRIPOS>MOLECULE
ASD07301191
  30   30    0    0    0
SMALL
NO_CHARGES


@<TRIPOS>ATOM
   1 C1            -0.5382     0.5496     1.2999 C.3     
   2 C2             0.0024    -0.0038     0.0067 C.2     
   3 C3             1.3293    -0.6209    -0.0274 C.2     
   4 C4             1.4658    -2.0713     0.1150 C.2     
   5 C5             2.8319    -2.7066     0.0800 C.3     
   6 O6            -0.6623     0.0622    -1.0066 O.2     
   7 O7             0.4788    -2.7622     0.2613 O.2     
   8 N8             2.4057     0.1326    -0.1870 N.2     
   9 N9             2.2805     1.3960    -0.4155 N.pl3   
  10 C10            3.4079     2.1704    -0.6885 C.ar    
  11 C11            3.2750     3.5320    -0.9350 C.ar    
  12 C12            4.3935     4.2954    -1.2043 C.ar    
  13 C13            5.6450     3.7071    -1.2291 C.ar    
  14 C14            5.7812     2.3525    -0.9848 C.ar    
  15 C15            4.6680     1.5837    -0.7090 C.ar    
  16 C16            6.8632     4.5439    -1.5236 C.3     
  17 F17            7.3818     5.0498    -0.3268 F       
  18 F18            7.8305     3.7537    -2.1538 F       
  19 F19            6.5083     5.6049    -2.3634 F       
  20 H20            0.1544     0.3222     2.1102 H       
  21 H21           -0.6534     1.6300     1.2128 H       
  22 H22           -1.5068     0.0969     1.5121 H       
  23 H23            3.4407    -2.3040     0.8895 H       
  24 H24            2.7340    -3.7854     0.2008 H       
  25 H25            3.3090    -2.4898    -0.8758 H       
  26 H26            1.4022     1.8075    -0.3975 H       
  27 H27            2.2981     3.9921    -0.9161 H       
  28 H28            4.2910     5.3533    -1.3963 H       
  29 H29            6.7599     1.8965    -1.0057 H       
  30 H30            4.7756     0.5269    -0.5136 H       
@<TRIPOS>BOND
   1    1    2 1
   2    1   20 1
   3    1   21 1
   4    1   22 1
   5    2    3 1
   6    2    6 2
   7    3    4 1
   8    3    8 2
   9    4    5 1
  10    4    7 2
  11    5   23 1
  12    5   24 1
  13    5   25 1
  14    8    9 1
  15    9   10 1
  16    9   26 1
  17   10   11 ar
  18   10   15 ar
  19   11   12 ar
  20   11   27 1
  21   12   13 ar
  22   12   28 1
  23   13   14 ar
  24   13   16 1
  25   14   15 ar
  26   14   29 1
  27   15   30 1
  28   16   17 1
  29   16   18 1
  30   16   19 1

#	End of record

