#	Name: ASD01901495
#	Creating user name:	WinNT
#	Creation time:	15. 06. 2019 19:53

#	Modifying user name:	WinNT
#	Modification time:	15. 06. 2019 19:53

#	Program:	/corina/corina34_cracker 3.40 0067  02.08.2006

@<TRIPOS>MOLECULE
ASD01901495
  39   42    0    0    0
SMALL
NO_CHARGES


@<TRIPOS>ATOM
   1 C1             0.9181    -0.1598     1.0422 C.ar    
   2 C2             2.0974     0.5560     1.0322 C.ar    
   3 C3             2.3752     1.4224    -0.0117 C.ar    
   4 C4             1.4722     1.5749    -1.0497 C.ar    
   5 C5             0.2896     0.8637    -1.0487 C.ar    
   6 C6             0.0055    -0.0098    -0.0007 C.ar    
   7 C7            -1.2638    -0.7774     0.0050 C.2     
   8 N8            -2.3539    -2.8756    -0.0976 N.2     
   9 C9            -1.2417    -2.1849    -0.1012 C.2     
  10 N10           -2.4175    -0.1486     0.1146 N.2     
  11 N11           -3.6006    -0.8973     0.1178 N.pl3   
  12 C12           -3.5415    -2.2660     0.0073 C.2     
  13 C13           -4.9169    -0.5572     0.2138 C.2     
  14 C14           -5.6305    -1.7055     0.1613 C.2     
  15 N15           -4.7832    -2.7290     0.0349 N.2     
  16 C16           -7.1321    -1.8112     0.2320 C.3     
  17 O17           -7.6959    -0.5048     0.3642 O.3     
  18 C18           -9.0479    -0.4224     0.4418 C.ar    
  19 C19           -9.6549     0.8200     0.5712 C.ar    
  20 N20           -9.7756    -1.5257     0.3881 N.ar    
  21 C21          -11.0925    -1.4905     0.4600 C.ar    
  22 C22          -11.7622    -0.2905     0.5949 C.ar    
  23 C23          -11.0351     0.8904     0.6494 C.ar    
  24 C24            0.6198    -1.1070     2.1758 C.3     
  25 Cl25           3.8607     2.3207    -0.0183 Cl      
  26 H26            2.8050     0.4407     1.8399 H       
  27 H27            1.6935     2.2519    -1.8616 H       
  28 H28           -0.4145     0.9837    -1.8588 H       
  29 H29           -0.2954    -2.6983    -0.1868 H       
  30 H30           -5.3156     0.4416     0.3131 H       
  31 H31           -7.5068    -2.2782    -0.6788 H       
  32 H32           -7.4135    -2.4172     1.0932 H       
  33 H33           -9.0580     1.7192     0.6107 H       
  34 H34          -11.6539    -2.4120     0.4123 H       
  35 H35          -12.8405    -0.2707     0.6530 H       
  36 H36          -11.5347     1.8425     0.7509 H       
  37 H37            0.9250    -2.1154     1.8964 H       
  38 H38            1.1682    -0.7944     3.0644 H       
  39 H39           -0.4496    -1.0962     2.3864 H       
@<TRIPOS>BOND
   1    1    6 ar
   2    1    2 ar
   3    1   24 1
   4    2    3 ar
   5    2   26 1
   6    3    4 ar
   7    3   25 1
   8    4    5 ar
   9    4   27 1
  10    5    6 ar
  11    5   28 1
  12    6    7 1
  13    7   10 2
  14    7    9 1
  15    8    9 2
  16    8   12 1
  17    9   29 1
  18   10   11 1
  19   11   13 1
  20   11   12 1
  21   12   15 2
  22   13   14 2
  23   13   30 1
  24   14   15 1
  25   14   16 1
  26   16   17 1
  27   16   31 1
  28   16   32 1
  29   17   18 1
  30   18   19 ar
  31   18   20 ar
  32   19   23 ar
  33   19   33 1
  34   20   21 ar
  35   21   22 ar
  36   21   34 1
  37   22   23 ar
  38   22   35 1
  39   23   36 1
  40   24   37 1
  41   24   38 1
  42   24   39 1

#	End of record

