#	Name: ASD05470005
#	Creating user name:	WinNT
#	Creation time:	15. 06. 2019 21:00

#	Modifying user name:	WinNT
#	Modification time:	15. 06. 2019 21:00

#	Program:	/corina/corina34_cracker 3.40 0067  02.08.2006

@<TRIPOS>MOLECULE
ASD05470005
  53   57    0    0    0
SMALL
NO_CHARGES


@<TRIPOS>ATOM
   1 Cl1            0.6430    -1.9500    -9.2192 Cl      
   2 S2            -0.0218     1.7538     0.0117 S.3     
   3 O3            -0.5932    -2.2710    -2.4780 O.3     
   4 O4            -4.6669    -1.4774     0.0532 O.3     
   5 O5            -2.7485     0.7778     0.0390 O.2     
   6 O6            -2.2610    -5.1023    -0.0004 O.3     
   7 O7            -4.3119    -4.2486     0.0330 O.2     
   8 N8            -1.1230    -0.8095     0.0080 N.am    
   9 N9             1.2157    -0.4359    -0.0119 N.2     
  10 C10           -1.1349    -2.2770     0.0002 C.3     
  11 C11           -2.5891    -2.6865     0.0181 C.2     
  12 C12           -0.4662    -2.7940    -1.2474 C.2     
  13 C13           -2.3999    -0.3860     0.0279 C.2     
  14 C14           -3.3159    -1.5458     0.0343 C.2     
  15 C15            0.0021    -0.0041     0.0020 C.2     
  16 C16            0.3578    -3.8578    -1.3138 C.2     
  17 C17           -3.1117    -4.0560     0.0174 C.2     
  18 C18            0.1439    -2.9882    -3.3476 C.2     
  19 C19            0.7544    -3.9895    -2.6598 C.2     
  20 C20            1.7397     1.7912    -0.0049 C.ar    
  21 C21            2.2090     0.4741    -0.0165 C.ar    
  22 C22            0.2674    -2.7316    -4.7978 C.ar    
  23 C23            2.6348     2.8585    -0.0073 C.ar    
  24 C24            3.6040     0.2593    -0.0314 C.ar    
  25 C25            3.9915     2.6245    -0.0211 C.ar    
  26 C26            4.4706     1.3224    -0.0344 C.ar    
  27 C27           -0.4166    -1.6637    -5.3813 C.ar    
  28 C28            1.0731    -3.5527    -5.5887 C.ar    
  29 C29           -2.8489    -6.4300     0.0001 C.3     
  30 C30            4.9560     3.7824    -0.0233 C.3     
  31 C31           -0.2974    -1.4293    -6.7353 C.ar    
  32 C32            1.1843    -3.3082    -6.9416 C.ar    
  33 C33           -1.7366    -7.4803    -0.0214 C.3     
  34 C34            0.4984    -2.2510    -7.5157 C.ar    
  35 H35           -0.6266    -2.6606     0.8849 H       
  36 H36            0.6580    -4.4899    -0.4911 H       
  37 H37            1.4154    -4.7407    -3.0663 H       
  38 H38           -5.0149    -0.5753     0.0629 H       
  39 H39            2.2634     3.8726     0.0013 H       
  40 H40            3.9915    -0.7488    -0.0402 H       
  41 H41            5.5358     1.1443    -0.0455 H       
  42 H42           -1.0381    -1.0226    -4.7737 H       
  43 H43            1.6085    -4.3775    -5.1421 H       
  44 H44           -3.4534    -6.5593     0.8978 H       
  45 H45           -3.4781    -6.5490    -0.8819 H       
  46 H46            5.1980     4.0556     1.0038 H       
  47 H47            5.8676     3.4950    -0.5472 H       
  48 H48            4.5001     4.6341    -0.5280 H       
  49 H49           -0.8261    -0.6034    -7.1878 H       
  50 H50            1.8076    -3.9425    -7.5544 H       
  51 H51           -1.1074    -7.3613     0.8606 H       
  52 H52           -2.1780    -8.4770    -0.0210 H       
  53 H53           -1.1321    -7.3510    -0.9191 H       
@<TRIPOS>BOND
   1    1   34 1
   2    2   15 1
   3    2   20 1
   4    3   12 1
   5    3   18 1
   6    4   14 1
   7    4   38 1
   8    5   13 2
   9    6   17 1
  10    6   29 1
  11    7   17 2
  12    8   10 1
  13    8   13 am
  14    8   15 1
  15    9   15 2
  16    9   21 1
  17   10   11 1
  18   10   12 1
  19   10   35 1
  20   11   14 2
  21   11   17 1
  22   12   16 2
  23   13   14 1
  24   16   19 1
  25   16   36 1
  26   18   19 2
  27   18   22 1
  28   19   37 1
  29   20   21 ar
  30   20   23 ar
  31   21   24 ar
  32   22   27 ar
  33   22   28 ar
  34   23   25 ar
  35   23   39 1
  36   24   26 ar
  37   24   40 1
  38   25   26 ar
  39   25   30 1
  40   26   41 1
  41   27   31 ar
  42   27   42 1
  43   28   32 ar
  44   28   43 1
  45   29   33 1
  46   29   44 1
  47   29   45 1
  48   30   46 1
  49   30   47 1
  50   30   48 1
  51   31   34 ar
  52   31   49 1
  53   32   34 ar
  54   32   50 1
  55   33   51 1
  56   33   52 1
  57   33   53 1

#	End of record

