#	Name: ASD03731176
#	Creating user name:	WinNT
#	Creation time:	15. 06. 2019 20:45

#	Modifying user name:	WinNT
#	Modification time:	15. 06. 2019 20:45

#	Program:	/corina/corina34_cracker 3.40 0067  02.08.2006

@<TRIPOS>MOLECULE
ASD03731176
  65   72    0    0    0
SMALL
NO_CHARGES


@<TRIPOS>ATOM
   1 N1            -0.0162     1.3436     0.0094 N.am    
   2 C2             0.0551     0.0127     0.2100 C.2     
   3 O3             1.1386    -0.5300     0.3093 O.2     
   4 N4            -1.0747    -0.7166     0.3007 N.am    
   5 C5            -0.9972    -2.1632     0.5187 C.3     
   6 C6            -2.4106    -2.7457     0.5827 C.3     
   7 O7             2.5467    -7.0746     3.4771 O.3     
   8 C8             3.0167    -8.3606     3.9225 C.3     
   9 O9             1.8523    -8.9632     4.5176 O.3     
  10 C10            0.7832    -8.3974     3.8838 C.ar    
  11 C11            1.2106    -7.2356     3.2451 C.ar    
  12 C12           -0.5415    -8.7865     3.7981 C.ar    
  13 C13           -1.4553    -8.0233     3.0777 C.ar    
  14 C14           -1.0183    -6.8603     2.4508 C.ar    
  15 C15            0.3032    -6.4729     2.5293 C.ar    
  16 O16           -2.7845    -8.2343     2.8560 O.3     
  17 C17           -2.2247    -6.2509     1.7882 C.3     
  18 C18           -3.3976    -7.0007     2.4343 C.3     
  19 N19           -2.3331    -4.1923     0.8007 N.am    
  20 C20           -2.3120    -4.7697     2.0186 C.2     
  21 C21           -2.2045    -6.4211     0.2980 C.ar    
  22 C22           -2.1370    -7.5165    -0.5336 C.ar    
  23 C23           -2.1381    -7.3454    -1.9065 C.ar    
  24 C24           -2.2066    -6.0717    -2.4413 C.ar    
  25 C25           -2.2734    -4.9713    -1.6124 C.ar    
  26 C26           -2.2732    -5.1341    -0.2293 C.ar    
  27 O27           -2.3555    -4.2037     3.0905 O.2     
  28 C28            4.8802     2.0724    -0.9868 C.3     
  29 C29            3.4784     2.3544    -0.5039 C.ar    
  30 C30            2.3298     1.5940    -0.5071 C.ar    
  31 C31            1.1505     2.1146     0.0126 C.ar    
  32 C32            1.1316     3.4025     0.5350 C.ar    
  33 C33            2.2789     4.1651     0.5393 C.ar    
  34 C34            3.4664     3.6457     0.0180 C.ar    
  35 C35            4.8212     4.2388    -0.1010 C.ar    
  36 C36            5.3124     5.4914     0.2727 C.ar    
  37 C37            6.6366     5.8062     0.0500 C.ar    
  38 C38            7.4819     4.8855    -0.5431 C.ar    
  39 C39            7.0019     3.6427    -0.9163 C.ar    
  40 C40            5.6797     3.3189    -0.6968 C.ar    
  41 H41           -0.8763     1.7660    -0.1411 H       
  42 H42           -1.9391    -0.2836     0.2215 H       
  43 H43           -0.4504    -2.6257    -0.3030 H       
  44 H44           -0.4795    -2.3620     1.4571 H       
  45 H45           -2.9573    -2.2832     1.4044 H       
  46 H46           -2.9283    -2.5469    -0.3557 H       
  47 H47            3.3658    -8.9544     3.0777 H       
  48 H48            3.8081    -8.2437     4.6628 H       
  49 H49           -0.8687    -9.6886     4.2935 H       
  50 H50            0.6309    -5.5722     2.0315 H       
  51 H51           -4.1853    -7.1895     1.7049 H       
  52 H52           -3.7854    -6.4487     3.2904 H       
  53 H53           -2.0834    -8.5101    -0.1138 H       
  54 H54           -2.0861    -8.2043    -2.5591 H       
  55 H55           -2.2074    -5.9382    -3.5130 H       
  56 H56           -2.3261    -3.9799    -2.0375 H       
  57 H57            5.2995     1.2235    -0.4466 H       
  58 H58            4.8747     1.8707    -2.0579 H       
  59 H59            2.3455     0.5935    -0.9136 H       
  60 H60            0.2149     3.8066     0.9383 H       
  61 H61            2.2603     5.1655     0.9458 H       
  62 H62            4.6558     6.2133     0.7353 H       
  63 H63            7.0151     6.7754     0.3395 H       
  64 H64            8.5178     5.1375    -0.7155 H       
  65 H65            7.6634     2.9256    -1.3796 H       
@<TRIPOS>BOND
   1    1    2 am
   2    1   31 1
   3    1   41 1
   4    2    3 2
   5    2    4 am
   6    4    5 1
   7    4   42 1
   8    5    6 1
   9    5   43 1
  10    5   44 1
  11    6   19 1
  12    6   45 1
  13    6   46 1
  14    7    8 1
  15    7   11 1
  16    8    9 1
  17    8   47 1
  18    8   48 1
  19    9   10 1
  20   10   11 ar
  21   10   12 ar
  22   11   15 ar
  23   12   13 ar
  24   12   49 1
  25   13   14 ar
  26   13   16 1
  27   14   15 ar
  28   14   17 1
  29   15   50 1
  30   16   18 1
  31   17   18 1
  32   17   20 1
  33   17   21 1
  34   18   51 1
  35   18   52 1
  36   19   20 am
  37   19   26 1
  38   20   27 2
  39   21   22 ar
  40   21   26 ar
  41   22   23 ar
  42   22   53 1
  43   23   24 ar
  44   23   54 1
  45   24   25 ar
  46   24   55 1
  47   25   26 ar
  48   25   56 1
  49   28   29 1
  50   28   40 1
  51   28   57 1
  52   28   58 1
  53   29   30 ar
  54   29   34 ar
  55   30   31 ar
  56   30   59 1
  57   31   32 ar
  58   32   33 ar
  59   32   60 1
  60   33   34 ar
  61   33   61 1
  62   34   35 1
  63   35   36 ar
  64   35   40 ar
  65   36   37 ar
  66   36   62 1
  67   37   38 ar
  68   37   63 1
  69   38   39 ar
  70   38   64 1
  71   39   40 ar
  72   39   65 1

#	End of record

