#	Name: ASD07931761
#	Creating user name:	WinNT
#	Creation time:	15. 06. 2019 21:13

#	Modifying user name:	WinNT
#	Modification time:	15. 06. 2019 21:13

#	Program:	/corina/corina34_cracker 3.40 0067  02.08.2006

@<TRIPOS>MOLECULE
ASD07931761
  44   46    0    0    0
SMALL
NO_CHARGES


@<TRIPOS>ATOM
   1 C1             0.0103     1.7963     0.3208 C.3     
   2 C2            -0.0438     0.2778     0.0202 C.3     
   3 C3             1.1616    -0.3031     0.7878 C.3     
   4 C4             2.1626     0.8509     0.9725 C.3     
   5 C5             1.5306     2.0928     0.3106 C.3     
   6 O6            -0.6574     2.5391    -0.7012 O.3     
   7 N7            -1.2984    -0.3007     0.5194 N.3     
   8 C8            -1.4533    -1.6903     0.0689 C.3     
   9 C9            -1.6169    -1.7175    -1.4289 C.ar    
  10 C10           -0.5052    -1.8208    -2.2439 C.ar    
  11 C11           -0.6552    -1.8457    -3.6179 C.ar    
  12 C12           -1.9171    -1.7679    -4.1768 C.ar    
  13 C13           -3.0290    -1.6655    -3.3618 C.ar    
  14 C14           -2.8792    -1.6450    -1.9878 C.ar    
  15 C15           -1.3738    -0.2104     1.9837 C.3     
  16 C16           -2.7957    -0.4375     2.4284 C.ar    
  17 C17           -3.2048    -1.6990     2.8184 C.ar    
  18 C18           -4.5091    -1.9073     3.2263 C.ar    
  19 C19           -5.4041    -0.8540     3.2446 C.ar    
  20 C20           -4.9948     0.4077     2.8555 C.ar    
  21 C21           -3.6893     0.6169     2.4517 C.ar    
  22 H22           -0.4187     2.0119     1.2994 H       
  23 H23            0.0619     0.0967    -1.0495 H       
  24 H24            0.8401    -0.6776     1.7597 H       
  25 H25            1.6199    -1.1062     0.2107 H       
  26 H26            2.3269     1.0364     2.0339 H       
  27 H27            3.1068     0.6078     0.4850 H       
  28 H28            1.8905     2.2048    -0.7121 H       
  29 H29            1.7486     2.9880     0.8929 H       
  30 H30           -0.6517     3.4956    -0.5597 H       
  31 H31           -0.5693    -2.2635     0.3483 H       
  32 H32           -2.3339    -2.1285     0.5386 H       
  33 H33            0.4807    -1.8816    -1.8072 H       
  34 H34            0.2134    -1.9257    -4.2546 H       
  35 H35           -2.0343    -1.7867    -5.2503 H       
  36 H36           -4.0149    -1.6044    -3.7986 H       
  37 H37           -3.7481    -1.5687    -1.3509 H       
  38 H38           -0.7287    -0.9683     2.4281 H       
  39 H39           -1.0465     0.7786     2.3041 H       
  40 H40           -2.5056    -2.5219     2.8040 H       
  41 H41           -4.8289    -2.8930     3.5303 H       
  42 H42           -6.4233    -1.0168     3.5626 H       
  43 H43           -5.6941     1.2306     2.8695 H       
  44 H44           -3.3685     1.6034     2.1512 H       
@<TRIPOS>BOND
   1    1    2 1
   2    1    5 1
   3    1    6 1
   4    1   22 1
   5    2    3 1
   6    2    7 1
   7    2   23 1
   8    3    4 1
   9    3   24 1
  10    3   25 1
  11    4    5 1
  12    4   26 1
  13    4   27 1
  14    5   28 1
  15    5   29 1
  16    6   30 1
  17    7    8 1
  18    7   15 1
  19    8    9 1
  20    8   31 1
  21    8   32 1
  22    9   10 ar
  23    9   14 ar
  24   10   11 ar
  25   10   33 1
  26   11   12 ar
  27   11   34 1
  28   12   13 ar
  29   12   35 1
  30   13   14 ar
  31   13   36 1
  32   14   37 1
  33   15   16 1
  34   15   38 1
  35   15   39 1
  36   16   17 ar
  37   16   21 ar
  38   17   18 ar
  39   17   40 1
  40   18   19 ar
  41   18   41 1
  42   19   20 ar
  43   19   42 1
  44   20   21 ar
  45   20   43 1
  46   21   44 1

#	End of record

