#	Name: ASD05380285
#	Creating user name:	WinNT
#	Creation time:	15. 06. 2019 20:59

#	Modifying user name:	WinNT
#	Modification time:	15. 06. 2019 20:59

#	Program:	/corina/corina34_cracker 3.40 0067  02.08.2006

@<TRIPOS>MOLECULE
ASD05380285
  53   54    0    0    0
SMALL
NO_CHARGES


@<TRIPOS>ATOM
   1 C1             0.1407     1.1393     0.9053 C.ar    
   2 C2             0.4904    -0.1242     0.4043 C.ar    
   3 N3            -0.4179    -1.1784     0.4685 N.am    
   4 N4            -2.2199     1.7526     0.7386 N.am    
   5 C5            -1.1868     1.3567     1.5083 C.2     
   6 C6             1.0613     2.1888     0.8342 C.ar    
   7 C7             2.3044     1.9763     0.2734 C.ar    
   8 C8             2.6444     0.7281    -0.2199 C.ar    
   9 C9             1.7451    -0.3181    -0.1559 C.ar    
  10 C10           -3.5016     1.8569     1.2882 C.ar    
  11 C11           -4.3763     2.8343     0.8322 C.ar    
  12 C12           -5.6439     2.9354     1.3769 C.ar    
  13 C13           -6.0408     2.0629     2.3763 C.ar    
  14 C14           -3.9034     0.9796     2.2868 C.ar    
  15 F15           -6.4951     3.8864     0.9338 F       
  16 C16            0.0277    -2.4473     0.5573 C.2     
  17 C17           -0.9522    -3.5801     0.7234 C.3     
  18 O18            1.2172    -2.6774     0.5035 O.2     
  19 C19           -1.9082    -3.6067    -0.4709 C.3     
  20 C20           -5.1700     1.0878     2.8328 C.ar    
  21 F21           -5.5593     0.2383     3.8085 F       
  22 O22           -1.3498     1.1787     2.7002 O.2     
  23 Cl23           0.6416     3.7568     1.4497 Cl      
  24 N24           -0.2239    -4.8493     0.7944 N.am    
  25 O25           -0.1042    -7.0737     1.4881 O.3     
  26 C26           -0.7570    -8.1705     2.1804 C.3     
  27 C27           -2.0818    -8.4949     1.4871 C.3     
  28 C28            0.1489    -9.4031     2.1516 C.3     
  29 C29           -1.0261    -7.7691     3.6321 C.3     
  30 C30           -0.7735    -5.9073     1.4229 C.2     
  31 O31           -1.8730    -5.8085     1.9306 O.2     
  32 H32           -1.3710    -0.9993     0.4494 H       
  33 H33           -2.0745     1.9652    -0.1965 H       
  34 H34            3.0152     2.7876     0.2188 H       
  35 H35            3.6194     0.5715    -0.6573 H       
  36 H36            2.0185    -1.2885    -0.5431 H       
  37 H37           -4.0671     3.5152     0.0530 H       
  38 H38           -7.0307     2.1432     2.8004 H       
  39 H39           -3.2263     0.2159     2.6398 H       
  40 H40           -1.5217    -3.4361     1.6416 H       
  41 H41           -2.4500    -2.6624    -0.5237 H       
  42 H42           -1.3386    -3.7507    -1.3890 H       
  43 H43           -2.6169    -4.4261    -0.3507 H       
  44 H44            0.6538    -4.9281     0.3891 H       
  45 H45           -1.8901    -8.7808     0.4528 H       
  46 H46           -2.5718    -9.3182     2.0068 H       
  47 H47           -2.7272    -7.6167     1.5076 H       
  48 H48            1.0927    -9.1720     2.6456 H       
  49 H49           -0.3411   -10.2264     2.6713 H       
  50 H50            0.3406    -9.6890     1.1174 H       
  51 H51           -1.6715    -6.8910     3.6527 H       
  52 H52           -1.5161    -8.5924     4.1518 H       
  53 H53           -0.0823    -7.5380     4.1261 H       
@<TRIPOS>BOND
   1    1    2 ar
   2    1    6 ar
   3    1    5 1
   4    2    3 1
   5    2    9 ar
   6    3   16 am
   7    3   32 1
   8    4    5 am
   9    4   10 1
  10    4   33 1
  11    5   22 2
  12    6    7 ar
  13    6   23 1
  14    7    8 ar
  15    7   34 1
  16    8    9 ar
  17    8   35 1
  18    9   36 1
  19   10   11 ar
  20   10   14 ar
  21   11   12 ar
  22   11   37 1
  23   12   13 ar
  24   12   15 1
  25   13   20 ar
  26   13   38 1
  27   14   20 ar
  28   14   39 1
  29   16   17 1
  30   16   18 2
  31   17   19 1
  32   17   24 1
  33   17   40 1
  34   19   41 1
  35   19   42 1
  36   19   43 1
  37   20   21 1
  38   24   30 am
  39   24   44 1
  40   25   26 1
  41   25   30 1
  42   26   27 1
  43   26   28 1
  44   26   29 1
  45   27   45 1
  46   27   46 1
  47   27   47 1
  48   28   48 1
  49   28   49 1
  50   28   50 1
  51   29   51 1
  52   29   52 1
  53   29   53 1
  54   30   31 2

#	End of record

