#	Name: ASD01913190
#	Creating user name:	WinNT
#	Creation time:	15. 06. 2019 20:01

#	Modifying user name:	WinNT
#	Modification time:	15. 06. 2019 20:01

#	Program:	/corina/corina34_cracker 3.40 0067  02.08.2006

@<TRIPOS>MOLECULE
ASD01913190
  55   59    0    0    0
SMALL
NO_CHARGES


@<TRIPOS>ATOM
   1 C1             0.0665    -0.5975    -1.4816 C.3     
   2 N2            -0.4149     0.0244    -0.2434 N.am    
   3 C3            -0.4562     1.4955    -0.1982 C.3     
   4 C4            -1.4709     1.9686    -1.2380 C.3     
   5 C5            -1.2518     1.2734    -2.5558 C.ar    
   6 C6            -1.7881     1.8652    -3.6933 C.ar    
   7 C7            -1.6320     1.2765    -4.9306 C.ar    
   8 C8            -0.9368     0.0865    -5.0432 C.ar    
   9 C9            -0.4003    -0.5013    -3.9163 C.ar    
  10 C10           -0.5536     0.0925    -2.6707 C.ar    
  11 C11           -0.8041    -0.7207     0.8101 C.2     
  12 C12           -0.8399    -2.1926     0.7003 C.ar    
  13 C13           -1.9728    -2.8948     1.1093 C.ar    
  14 C14           -2.0009    -4.2836     1.0028 C.ar    
  15 C15           -0.8877    -4.9655     0.4842 C.ar    
  16 C16            0.2344    -4.2562     0.0808 C.ar    
  17 C17            0.2602    -2.8820     0.1807 C.ar    
  18 O18           -1.1257    -0.1807     1.8509 O.2     
  19 C19           -3.1600    -5.0131     1.4208 C.1     
  20 C20           -4.1103    -5.6113     1.7636 C.1     
  21 C21           -5.2694    -6.3408     2.1816 C.ar    
  22 C22           -5.2895    -7.7341     2.0714 C.ar    
  23 C23           -6.4165    -8.4233     2.4796 C.ar    
  24 C24           -7.4894    -7.7010     2.9854 C.ar    
  25 C25           -7.4033    -6.3234     3.0669 C.ar    
  26 N26           -6.3170    -5.6885     2.6769 N.ar    
  27 O27           -0.9095    -6.3173     0.3783 O.3     
  28 C28            0.2570    -6.9450    -0.1577 C.3     
  29 O29            2.2836     0.6041    -1.1942 O.3     
  30 C30            1.5665    -0.4725    -1.5553 C.2     
  31 C31            2.4143    -1.4204    -1.9934 C.2     
  32 C32            3.7181    -0.8834    -1.8902 C.2     
  33 C33            3.5890     0.3606    -1.3951 C.2     
  34 H34           -0.2098    -1.6518    -1.4892 H       
  35 H35           -0.7638     1.8255     0.7941 H       
  36 H36            0.5285     1.8995    -0.4333 H       
  37 H37           -2.4776     1.7515    -0.8811 H       
  38 H38           -1.3653     3.0444    -1.3783 H       
  39 H39           -2.3322     2.7941    -3.6074 H       
  40 H40           -2.0518     1.7435    -5.8092 H       
  41 H41           -0.8148    -0.3809    -6.0091 H       
  42 H42            0.1429    -1.4306    -4.0038 H       
  43 H43           -2.8251    -2.3643     1.5074 H       
  44 H44            1.0892    -4.7827    -0.3172 H       
  45 H45            1.1351    -2.3357    -0.1397 H       
  46 H46           -4.4373    -8.2645     1.6730 H       
  47 H47           -6.4616    -9.4999     2.4063 H       
  48 H48           -8.3836    -8.2110     3.3120 H       
  49 H49           -8.2368    -5.7603     3.4600 H       
  50 H50            0.4374    -6.5751    -1.1670 H       
  51 H51            1.1158    -6.7145     0.4727 H       
  52 H52            0.1075    -8.0243    -0.1876 H       
  53 H53            2.1499    -2.4034    -2.3543 H       
  54 H54            4.6407    -1.3773    -2.1572 H       
  55 H55            4.3979     1.0472    -1.1933 H       
@<TRIPOS>BOND
   1    1    2 1
   2    1   10 1
   3    1   30 1
   4    1   34 1
   5    2    3 1
   6    2   11 am
   7    3    4 1
   8    3   35 1
   9    3   36 1
  10    4    5 1
  11    4   37 1
  12    4   38 1
  13    5    6 ar
  14    5   10 ar
  15    6    7 ar
  16    6   39 1
  17    7    8 ar
  18    7   40 1
  19    8    9 ar
  20    8   41 1
  21    9   10 ar
  22    9   42 1
  23   11   12 1
  24   11   18 2
  25   12   13 ar
  26   12   17 ar
  27   13   14 ar
  28   13   43 1
  29   14   15 ar
  30   14   19 1
  31   15   16 ar
  32   15   27 1
  33   16   17 ar
  34   16   44 1
  35   17   45 1
  36   19   20 3
  37   20   21 1
  38   21   22 ar
  39   21   26 ar
  40   22   23 ar
  41   22   46 1
  42   23   24 ar
  43   23   47 1
  44   24   25 ar
  45   24   48 1
  46   25   26 ar
  47   25   49 1
  48   27   28 1
  49   28   50 1
  50   28   51 1
  51   28   52 1
  52   29   30 1
  53   29   33 1
  54   30   31 2
  55   31   32 1
  56   31   53 1
  57   32   33 2
  58   32   54 1
  59   33   55 1

#	End of record

