#	Name: ASD01883037
#	Creating user name:	WinNT
#	Creation time:	15. 06. 2019 19:45

#	Modifying user name:	WinNT
#	Modification time:	15. 06. 2019 19:45

#	Program:	/corina/corina34_cracker 3.40 0067  02.08.2006

@<TRIPOS>MOLECULE
ASD01883037
  49   52    0    0    0
SMALL
NO_CHARGES


@<TRIPOS>ATOM
   1 N1            -0.0370     1.3776     0.1757 N.am    
   2 C2            -0.0145     0.0409     0.0207 C.2     
   3 C3            -1.2290    -0.6882    -0.0042 C.2     
   4 C4            -2.4399     0.0129     0.1354 C.2     
   5 C5            -2.3970     1.4121     0.2943 C.2     
   6 C6            -1.2066     2.0532     0.3155 C.2     
   7 O7             1.0498    -0.5419    -0.0985 O.2     
   8 C8            -1.2235    -2.1107    -0.1687 C.1     
   9 N9            -1.2192    -3.2392    -0.2992 N.1     
  10 C10            1.2267     2.1184     0.2001 C.3     
  11 C11            1.5976     2.5410    -1.2228 C.3     
  12 C12           -5.3560    -2.0269    -1.0611 C.ar    
  13 C13           -3.7320    -0.7037     0.1152 C.ar    
  14 C14           -4.5383    -0.7258     1.2558 C.ar    
  15 C15           -5.7439    -1.3956     1.2324 C.ar    
  16 C16           -6.1561    -2.0481     0.0744 C.ar    
  17 O17           -7.3435    -2.7068     0.0542 O.3     
  18 C18           -8.4614    -1.9960    -0.2412 C.ar    
  19 C19           -9.7001    -2.6246    -0.3479 C.ar    
  20 C20          -10.8128    -1.8670    -0.6497 C.ar    
  21 N21          -10.7137    -0.5643    -0.8363 N.ar    
  22 C22           -9.5587     0.0669    -0.7438 C.ar    
  23 C23           -8.4005    -0.6189    -0.4397 C.ar    
  24 C24           -4.1504    -1.3603    -1.0448 C.ar    
  25 C25          -12.1582    -2.5355    -0.7683 C.3     
  26 C26            2.8304     3.4304    -1.3969 C.3     
  27 C27            2.8812     1.9609    -1.8201 C.3     
  28 C28           -9.8228    -4.1117    -0.1370 C.3     
  29 F29           -6.5250    -1.4182     2.3344 F       
  30 H30           -3.3141     1.9718     0.4033 H       
  31 H31           -1.1861     3.1261     0.4380 H       
  32 H32            1.1164     3.0045     0.8252 H       
  33 H33            2.0129     1.4823     0.6068 H       
  34 H34            0.7581     2.7068    -1.8980 H       
  35 H35           -5.6772    -2.5382    -1.9565 H       
  36 H36           -4.2180    -0.2197     2.1545 H       
  37 H37           -9.5200     1.1343    -0.9037 H       
  38 H38           -7.4583    -0.0963    -0.3655 H       
  39 H39           -3.5294    -1.3451    -1.9282 H       
  40 H40          -12.6483    -2.5408     0.2052 H       
  41 H41          -12.7740    -1.9884    -1.4822 H       
  42 H42          -12.0253    -3.5607    -1.1139 H       
  43 H43            2.8020     4.1809    -2.1868 H       
  44 H44            3.3771     3.7143    -0.4977 H       
  45 H45            3.4614     1.2782    -1.1994 H       
  46 H46            2.8863     1.7448    -2.8885 H       
  47 H47          -10.0177    -4.3144     0.9161 H       
  48 H48          -10.6451    -4.4975    -0.7395 H       
  49 H49           -8.8943    -4.5987    -0.4349 H       
@<TRIPOS>BOND
   1    1    2 am
   2    1   10 1
   3    1    6 1
   4    2    3 1
   5    2    7 2
   6    3    4 2
   7    3    8 1
   8    4    5 1
   9    4   13 1
  10    5    6 2
  11    5   30 1
  12    6   31 1
  13    8    9 3
  14   10   11 1
  15   10   32 1
  16   10   33 1
  17   11   26 1
  18   11   27 1
  19   11   34 1
  20   12   24 ar
  21   12   16 ar
  22   12   35 1
  23   13   14 ar
  24   13   24 ar
  25   14   15 ar
  26   14   36 1
  27   15   16 ar
  28   15   29 1
  29   16   17 1
  30   17   18 1
  31   18   19 ar
  32   18   23 ar
  33   19   20 ar
  34   19   28 1
  35   20   21 ar
  36   20   25 1
  37   21   22 ar
  38   22   23 ar
  39   22   37 1
  40   23   38 1
  41   24   39 1
  42   25   40 1
  43   25   41 1
  44   25   42 1
  45   26   27 1
  46   26   43 1
  47   26   44 1
  48   27   45 1
  49   27   46 1
  50   28   47 1
  51   28   48 1
  52   28   49 1

#	End of record

