#	Name: ASD01380008
#	Creating user name:	WinNT
#	Creation time:	15. 06. 2019 19:16

#	Modifying user name:	WinNT
#	Modification time:	15. 06. 2019 19:16

#	Program:	/corina/corina34_cracker 3.40 0067  02.08.2006

@<TRIPOS>MOLECULE
ASD01380008
  62   64    0    0    0
SMALL
NO_CHARGES


@<TRIPOS>ATOM
   1 C1            -0.1955     1.3856     0.1065 C.3     
   2 N2            -0.1393    -0.0783     0.1098 N.pl3   
   3 C3            -1.3141    -0.8181     0.1121 C.ar    
   4 C4            -2.5403    -0.1809     0.2540 C.ar    
   5 C5            -3.7067    -0.9184     0.2560 C.ar    
   6 C6            -3.6659    -2.2967     0.1174 C.ar    
   7 C7            -2.4597    -2.9470    -0.0241 C.ar    
   8 C8            -1.2697    -2.2141    -0.0349 C.ar    
   9 C9             0.0236    -2.9027    -0.1857 C.2     
  10 O10            1.0458    -2.2565    -0.3050 O.2     
  11 O11            0.0732    -4.2495    -0.1915 O.3     
  12 C12            1.3817    -4.8602    -0.3441 C.3     
  13 C13            1.4291    -6.2212     0.3770 C.3     
  14 C14            0.1007    -6.4780     1.0913 C.3     
  15 O15            0.1940    -7.6845     1.8514 O.3     
  16 P16           -1.0234    -8.2622     2.7326 P.3     
  17 O17           -2.2214    -8.4169     1.8774 O.2     
  18 O18           -0.6116    -9.6937     3.3435 O.3     
  19 P19           -1.4441   -10.9396     3.9326 P.3     
  20 O20           -2.5861   -11.2365     3.0393 O.2     
  21 O21           -0.4856   -12.2298     4.0252 O.3     
  22 P22           -0.7501   -13.8150     4.1221 P.3     
  23 O23           -1.8959   -14.0697     5.0235 O.2     
  24 O24           -1.0809   -14.3944     2.6568 O.3     
  25 O25            0.5625   -14.5436     4.7036 O.3     
  26 O26           -1.9928   -10.5722     5.4010 O.3     
  27 O27           -1.3493    -7.2400     3.9330 O.3     
  28 O28            1.6479    -7.2284    -0.6250 O.3     
  29 C29            2.3401    -6.5904    -1.7198 C.3     
  30 C30            1.6474    -5.2082    -1.8291 C.3     
  31 O31            0.4215    -5.3082    -2.5566 O.3     
  32 N32            2.1640    -7.3549    -2.9570 N.am    
  33 C33            1.1712    -8.2842    -3.0440 C.2     
  34 C34            1.0184    -8.9845    -4.1928 C.2     
  35 C35            1.8938    -8.7310    -5.2688 C.2     
  36 N36            2.8459    -7.8166    -5.1380 N.2     
  37 C37            2.9801    -7.1320    -4.0034 C.2     
  38 O38            3.8635    -6.2963    -3.9078 O.2     
  39 N39            1.7615    -9.4283    -6.4472 N.pl3   
  40 H40            0.8175     1.7881     0.1051 H       
  41 H41           -0.7233     1.7269    -0.7840 H       
  42 H42           -0.7224     1.7310     0.9959 H       
  43 H43            0.7188    -0.5308     0.1104 H       
  44 H44           -2.5809     0.8928     0.3632 H       
  45 H45           -4.6574    -0.4183     0.3666 H       
  46 H46           -4.5848    -2.8642     0.1207 H       
  47 H47           -2.4340    -4.0214    -0.1313 H       
  48 H48            2.1579    -4.1980     0.0394 H       
  49 H49            2.2457    -6.2299     1.0990 H       
  50 H50           -0.1203    -5.6447     1.7582 H       
  51 H51           -0.6959    -6.5741     0.3536 H       
  52 H52           -0.3721   -14.2623     2.0124 H       
  53 H53            0.4746   -15.5028     4.7892 H       
  54 H54           -1.2974   -10.3657     6.0404 H       
  55 H55           -0.6072    -7.0907     4.5348 H       
  56 H56            3.3985    -6.4720    -1.4878 H       
  57 H57            2.3115    -4.4754    -2.2875 H       
  58 H58            0.5290    -5.6112    -3.4686 H       
  59 H59            0.5135    -8.4605    -2.2057 H       
  60 H60            0.2385    -9.7260    -4.2835 H       
  61 H61            1.0645   -10.0965    -6.5397 H       
  62 H62            2.3652    -9.2517    -7.1856 H       
@<TRIPOS>BOND
   1    1    2 1
   2    1   40 1
   3    1   41 1
   4    1   42 1
   5    2    3 1
   6    2   43 1
   7    3    4 ar
   8    3    8 ar
   9    4    5 ar
  10    4   44 1
  11    5    6 ar
  12    5   45 1
  13    6    7 ar
  14    6   46 1
  15    7    8 ar
  16    7   47 1
  17    8    9 1
  18    9   10 2
  19    9   11 1
  20   11   12 1
  21   12   13 1
  22   12   30 1
  23   12   48 1
  24   13   14 1
  25   13   28 1
  26   13   49 1
  27   14   15 1
  28   14   50 1
  29   14   51 1
  30   15   16 1
  31   16   17 2
  32   16   18 1
  33   16   27 1
  34   18   19 1
  35   19   20 2
  36   19   21 1
  37   19   26 1
  38   21   22 1
  39   22   23 2
  40   22   24 1
  41   22   25 1
  42   24   52 1
  43   25   53 1
  44   26   54 1
  45   27   55 1
  46   28   29 1
  47   29   30 1
  48   29   32 1
  49   29   56 1
  50   30   31 1
  51   30   57 1
  52   31   58 1
  53   32   33 1
  54   32   37 am
  55   33   34 2
  56   33   59 1
  57   34   35 1
  58   34   60 1
  59   35   36 2
  60   35   39 1
  61   36   37 1
  62   37   38 2
  63   39   61 1
  64   39   62 1

#	End of record

