#	Name: ASD01510101
#	Creating user name:	WinNT
#	Creation time:	15. 06. 2019 19:21

#	Modifying user name:	WinNT
#	Modification time:	15. 06. 2019 19:21

#	Program:	/corina/corina34_cracker 3.40 0067  02.08.2006

@<TRIPOS>MOLECULE
ASD01510101
  43   45    0    0    0
SMALL
NO_CHARGES


@<TRIPOS>ATOM
   1 C1            -0.2363     1.4147     0.1304 C.3     
   2 O2            -0.1437    -0.0105     0.0820 O.3     
   3 C3             0.5508    -0.6171     1.0783 C.ar    
   4 N4             1.1017     0.1147     2.0321 N.ar    
   5 C5             1.7873    -0.4370     3.0227 C.ar    
   6 C6             1.9522    -1.8142     3.0930 C.ar    
   7 C7             1.3898    -2.6149     2.1121 C.ar    
   8 C8             0.6714    -2.0054     1.0890 C.ar    
   9 S9            -0.0651    -2.9750    -0.1846 S.3     
  10 C10           -1.7506    -2.9215     0.3262 C.ar    
  11 N11           -2.0595    -2.3377     1.4753 N.ar    
  12 C12           -3.3155    -2.2778     1.8927 C.ar    
  13 C13           -4.3132    -2.8331     1.1156 C.ar    
  14 C14           -3.9578    -3.4418    -0.0906 C.ar    
  15 N15           -2.6789    -3.4613    -0.4508 N.ar    
  16 N16           -4.9251    -4.0122    -0.9018 N.pl3   
  17 N17            2.3498     0.3742     4.0052 N.3     
  18 C18            2.0608     1.7917     3.7468 C.3     
  19 C19            2.6262     2.6410     4.8876 C.3     
  20 N20            4.0740     2.4125     4.9939 N.3     
  21 C21            4.3630     0.9950     5.2523 C.3     
  22 C22            3.7976     0.1457     4.1115 C.3     
  23 C23            4.6673     3.2681     6.0302 C.3     
  24 H24            0.7644     1.8453     0.0941 H       
  25 H25           -0.8160     1.7703    -0.7214 H       
  26 H26           -0.7280     1.7156     1.0555 H       
  27 H27            2.5130    -2.2561     3.9033 H       
  28 H28            1.5036    -3.6885     2.1433 H       
  29 H29           -3.5566    -1.8001     2.8308 H       
  30 H30           -5.3448    -2.7979     1.4334 H       
  31 H31           -5.8571    -3.9907    -0.6337 H       
  32 H32           -4.6705    -4.4330    -1.7379 H       
  33 H33            2.5233     2.0916     2.8065 H       
  34 H34            0.9824     1.9376     3.6848 H       
  35 H35            2.4384     3.6952     4.6838 H       
  36 H36            2.1440     2.3599     5.8238 H       
  37 H37            5.4414     0.8492     5.3143 H       
  38 H38            3.9005     0.6951     6.1927 H       
  39 H39            3.9854    -0.9085     4.3154 H       
  40 H40            4.2798     0.4269     3.1753 H       
  41 H41            4.2068     3.0456     6.9927 H       
  42 H42            5.7392     3.0789     6.0879 H       
  43 H43            4.4962     4.3149     5.7790 H       
@<TRIPOS>BOND
   1    1    2 1
   2    1   24 1
   3    1   25 1
   4    1   26 1
   5    2    3 1
   6    3    4 ar
   7    3    8 ar
   8    4    5 ar
   9    5    6 ar
  10    5   17 1
  11    6    7 ar
  12    6   27 1
  13    7    8 ar
  14    7   28 1
  15    8    9 1
  16    9   10 1
  17   10   11 ar
  18   10   15 ar
  19   11   12 ar
  20   12   13 ar
  21   12   29 1
  22   13   14 ar
  23   13   30 1
  24   14   15 ar
  25   14   16 1
  26   16   31 1
  27   16   32 1
  28   17   18 1
  29   17   22 1
  30   18   19 1
  31   18   33 1
  32   18   34 1
  33   19   20 1
  34   19   35 1
  35   19   36 1
  36   20   21 1
  37   20   23 1
  38   21   22 1
  39   21   37 1
  40   21   38 1
  41   22   39 1
  42   22   40 1
  43   23   41 1
  44   23   42 1
  45   23   43 1

#	End of record

