#	Name: ASD01670001
#	Creating user name:	WinNT
#	Creation time:	15. 06. 2019 19:22

#	Modifying user name:	WinNT
#	Modification time:	15. 06. 2019 19:22

#	Program:	/corina/corina34_cracker 3.40 0067  02.08.2006

@<TRIPOS>MOLECULE
ASD01670001
  57   60    0    0    0
SMALL
NO_CHARGES


@<TRIPOS>ATOM
   1 O1             0.2942     1.1802     0.2773 O.3     
   2 C2             0.1337    -0.1452     0.1384 C.2     
   3 O3             1.0995    -0.8704     0.1041 O.2     
   4 C4            -1.2511    -0.7287     0.0253 C.3     
   5 C5            -1.9991    -0.5008     1.3136 C.ar    
   6 C6            -1.6483    -1.2045     2.4587 C.ar    
   7 C7            -0.5136    -2.1939     2.3909 C.3     
   8 N8            -2.2762    -1.0322     3.5977 N.ar    
   9 C9            -3.2897    -0.1687     3.7195 C.ar    
  10 C10           -3.7118     0.5896     2.6008 C.ar    
  11 C11           -3.0396     0.4185     1.3641 C.ar    
  12 C12           -3.4404     1.1861     0.1637 C.ar    
  13 C13           -2.5621     2.1108    -0.4025 C.ar    
  14 C14           -2.9425     2.8221    -1.5182 C.ar    
  15 C15           -4.1996     2.6249    -2.0851 C.ar    
  16 C16           -5.0727     1.7042    -1.5271 C.ar    
  17 C17           -4.6951     0.9844    -0.4099 C.ar    
  18 C18           -6.4368     1.4560    -2.1202 C.3     
  19 C19           -6.8195     2.6202    -3.0373 C.3     
  20 C20           -5.6363     2.9071    -3.9706 C.3     
  21 O21           -4.5363     3.3567    -3.1787 O.3     
  22 C22           -4.7750     1.4920     2.7346 C.ar    
  23 C23           -5.3930     1.6312     3.9411 C.ar    
  24 C24           -4.9806     0.8874     5.0442 C.ar    
  25 C25           -3.9511     0.0021     4.9485 C.ar    
  26 O26           -1.1575    -2.1317    -0.2294 O.3     
  27 C27           -1.1129    -2.4688    -1.6174 C.3     
  28 C28            0.1079    -1.8102    -2.2631 C.3     
  29 C29           -1.0135    -3.9879    -1.7703 C.3     
  30 C30           -2.3852    -1.9691    -2.3047 C.3     
  31 H31            1.2015     1.5078     0.3459 H       
  32 H32           -1.7832    -0.2454    -0.7941 H       
  33 H33            0.4338    -1.6692     2.5144 H       
  34 H34           -0.6267    -2.9315     3.1854 H       
  35 H35           -0.5272    -2.6966     1.4238 H       
  36 H36           -1.5866     2.2683     0.0334 H       
  37 H37           -2.2624     3.5376    -1.9563 H       
  38 H38           -5.3774     0.2694     0.0256 H       
  39 H39           -6.4190     0.5310    -2.6964 H       
  40 H40           -7.1704     1.3693    -1.3187 H       
  41 H41           -7.6957     2.3506    -3.6271 H       
  42 H42           -7.0373     3.5040    -2.4378 H       
  43 H43           -5.3585     1.9966    -4.5015 H       
  44 H44           -5.9131     3.6804    -4.6871 H       
  45 H45           -5.1028     2.0745     1.8863 H       
  46 H46           -6.2126     2.3271     4.0433 H       
  47 H47           -5.4855     1.0151     5.9903 H       
  48 H48           -3.6435    -0.5670     5.8133 H       
  49 H49            1.0143    -2.1662    -1.7735 H       
  50 H50            0.1419    -2.0674    -3.3218 H       
  51 H51            0.0371    -0.7280    -2.1542 H       
  52 H52           -1.8832    -4.4570    -1.3103 H       
  53 H53           -0.9795    -4.2450    -2.8290 H       
  54 H54           -0.1071    -4.3438    -1.2807 H       
  55 H55           -2.4560    -0.8869    -2.1957 H       
  56 H56           -2.3512    -2.2262    -3.3634 H       
  57 H57           -3.2549    -2.4383    -1.8446 H       
@<TRIPOS>BOND
   1    1    2 1
   2    1   31 1
   3    2    3 2
   4    2    4 1
   5    4    5 1
   6    4   26 1
   7    4   32 1
   8    5    6 ar
   9    5   11 ar
  10    6    7 1
  11    6    8 ar
  12    7   33 1
  13    7   34 1
  14    7   35 1
  15    8    9 ar
  16    9   10 ar
  17    9   25 ar
  18   10   11 ar
  19   10   22 ar
  20   11   12 1
  21   12   13 ar
  22   12   17 ar
  23   13   14 ar
  24   13   36 1
  25   14   15 ar
  26   14   37 1
  27   15   16 ar
  28   15   21 1
  29   16   17 ar
  30   16   18 1
  31   17   38 1
  32   18   19 1
  33   18   39 1
  34   18   40 1
  35   19   20 1
  36   19   41 1
  37   19   42 1
  38   20   21 1
  39   20   43 1
  40   20   44 1
  41   22   23 ar
  42   22   45 1
  43   23   24 ar
  44   23   46 1
  45   24   25 ar
  46   24   47 1
  47   25   48 1
  48   26   27 1
  49   27   28 1
  50   27   29 1
  51   27   30 1
  52   28   49 1
  53   28   50 1
  54   28   51 1
  55   29   52 1
  56   29   53 1
  57   29   54 1
  58   30   55 1
  59   30   56 1
  60   30   57 1

#	End of record

