#	Name: ASD01208535
#	Creating user name:	WinNT
#	Creation time:	15. 06. 2019 19:10

#	Modifying user name:	WinNT
#	Modification time:	15. 06. 2019 19:10

#	Program:	/corina/corina34_cracker 3.40 0067  02.08.2006

@<TRIPOS>MOLECULE
ASD01208535
  53   55    0    0    0
SMALL
NO_CHARGES


@<TRIPOS>ATOM
   1 N1            -0.4254     1.0394    -0.9861 N.pl3   
   2 C2            -0.4112    -0.2449    -1.4835 C.2     
   3 C3             0.9071    -0.6217    -1.6530 C.2     
   4 C4             1.7022     0.4497    -1.2525 C.2     
   5 C5             0.8627     1.4643    -0.8447 C.2     
   6 C6            -1.5862    -1.0664    -1.7796 C.2     
   7 O7            -1.4463    -2.1924    -2.2181 O.2     
   8 O8            -2.8243    -0.5746    -1.5662 O.3     
   9 C9             1.2866     2.7878    -0.3408 C.ar    
  10 C10            2.6439     3.0981    -0.2449 C.ar    
  11 C11            3.0368     4.3392     0.2272 C.ar    
  12 C12            2.0832     5.2737     0.6052 C.ar    
  13 C13            0.7327     4.9692     0.5120 C.ar    
  14 C14            0.3309     3.7321     0.0348 C.ar    
  15 O15           -0.1971     5.8876     0.8842 O.3     
  16 C16           -1.7791     6.6219     2.5102 C.ar    
  17 C17           -0.8050     5.7276     2.0891 C.ar    
  18 C18           -0.4601     4.6648     2.9179 C.ar    
  19 C19           -1.1079     4.5432     4.1369 C.ar    
  20 C20           -2.0678     5.4741     4.4868 C.ar    
  21 N21           -2.3716     6.4703     3.6778 N.ar    
  22 S22           -2.8973     5.3274     6.0344 S.o2    
  23 O23           -4.1459     5.9728     5.8253 O.2     
  24 O24           -2.8311     3.9406     6.3374 O.2     
  25 C25           -1.8733     6.2808     7.1889 C.3     
  26 O26            4.3583     4.6423     0.3209 O.3     
  27 C27            4.6919     5.9705     0.7292 C.3     
  28 C28            6.0905     6.3246     0.2196 C.3     
  29 C29            4.6690     6.0554     2.2567 C.3     
  30 O30            7.0554     5.4812     0.8517 O.3     
  31 C31            8.4019     5.7310     0.4435 C.3     
  32 H32           -1.2186     1.5565    -0.7756 H       
  33 H33            1.2570    -1.5724    -2.0273 H       
  34 H34            2.7817     0.4799    -1.2599 H       
  35 H35           -3.5360    -1.1895    -1.7910 H       
  36 H36            3.3869     2.3712    -0.5382 H       
  37 H37            2.3931     6.2406     0.9733 H       
  38 H38           -0.7205     3.4975    -0.0417 H       
  39 H39           -2.0514     7.4530     1.8766 H       
  40 H40            0.2938     3.9518     2.6185 H       
  41 H41           -0.8658     3.7303     4.8055 H       
  42 H42           -1.8167     7.3166     6.8542 H       
  43 H43           -2.3173     6.2442     8.1838 H       
  44 H44           -0.8707     5.8545     7.2226 H       
  45 H45            3.9664     6.6708     0.3154 H       
  46 H46            6.1317     6.1784    -0.8597 H       
  47 H47            6.3095     7.3663     0.4538 H       
  48 H48            4.9235     7.0685     2.5681 H       
  49 H49            3.6727     5.8032     2.6197 H       
  50 H50            5.3946     5.3551     2.6704 H       
  51 H51            8.4911     5.5725    -0.6312 H       
  52 H52            8.6689     6.7604     0.6824 H       
  53 H53            9.0727     5.0505     0.9681 H       
@<TRIPOS>BOND
   1    1    2 1
   2    1    5 1
   3    1   32 1
   4    2    3 2
   5    2    6 1
   6    3    4 1
   7    3   33 1
   8    4    5 2
   9    4   34 1
  10    5    9 1
  11    6    7 2
  12    6    8 1
  13    8   35 1
  14    9   10 ar
  15    9   14 ar
  16   10   11 ar
  17   10   36 1
  18   11   12 ar
  19   11   26 1
  20   12   13 ar
  21   12   37 1
  22   13   14 ar
  23   13   15 1
  24   14   38 1
  25   15   17 1
  26   16   17 ar
  27   16   21 ar
  28   16   39 1
  29   17   18 ar
  30   18   19 ar
  31   18   40 1
  32   19   20 ar
  33   19   41 1
  34   20   21 ar
  35   20   22 1
  36   22   23 2
  37   22   24 2
  38   22   25 1
  39   25   42 1
  40   25   43 1
  41   25   44 1
  42   26   27 1
  43   27   28 1
  44   27   29 1
  45   27   45 1
  46   28   30 1
  47   28   46 1
  48   28   47 1
  49   29   48 1
  50   29   49 1
  51   29   50 1
  52   30   31 1
  53   31   51 1
  54   31   52 1
  55   31   53 1

#	End of record

