#	Name: ASD01200040
#	Creating user name:	WinNT
#	Creation time:	15. 06. 2019 19:08

#	Modifying user name:	WinNT
#	Modification time:	15. 06. 2019 19:08

#	Program:	/corina/corina34_cracker 3.40 0067  02.08.2006

@<TRIPOS>MOLECULE
ASD01200040
  38   40    0    0    0
SMALL
NO_CHARGES


@<TRIPOS>ATOM
   1 C1             0.0232     1.2631    -0.0899 C.ar    
   2 C2            -0.0421     0.1370     0.7222 C.ar    
   3 C3            -1.2453    -0.5069     0.9267 C.ar    
   4 C4            -2.4015    -0.0326     0.3210 C.ar    
   5 C5            -2.3419     1.1040    -0.5001 C.ar    
   6 C6            -1.1193     1.7514    -0.6962 C.ar    
   7 C7            -3.5634     1.6153    -1.1475 C.2     
   8 N8            -3.5281     2.7760    -1.8317 N.am    
   9 C9            -4.6791     3.2578    -2.4418 C.2     
  10 N10           -4.7539     4.3593    -3.1214 N.2     
  11 C11           -5.9308     4.6661    -3.6342 C.2     
  12 C12           -6.8963     3.7820    -3.3756 C.2     
  13 S13           -6.2018     2.4809    -2.4121 S.3     
  14 O14           -4.6030     0.9899    -1.0644 O.2     
  15 C15           -6.1654     5.9142    -4.4456 C.3     
  16 O16            1.2141     1.8901    -0.2842 O.3     
  17 N17           -3.6141    -0.6821     0.5270 N.pl3   
  18 C18            1.5705     2.8676     0.5898 C.ar    
  19 C19            2.7715     3.5429     0.4253 C.ar    
  20 C20            3.1312     4.5365     1.3150 C.ar    
  21 C21            2.2957     4.8583     2.3687 C.ar    
  22 C22            1.0984     4.1869     2.5349 C.ar    
  23 C23            0.7315     3.1961     1.6450 C.ar    
  24 H24            0.8540    -0.2365     1.1955 H       
  25 H25           -1.2879    -1.3815     1.5588 H       
  26 H26           -1.0655     2.6269    -1.3263 H       
  27 H27           -2.6988     3.2748    -1.8980 H       
  28 H28           -7.9231     3.8502    -3.7032 H       
  29 H29           -5.9823     5.7025    -5.4990 H       
  30 H30           -7.1960     6.2441    -4.3151 H       
  31 H31           -5.4875     6.6988    -4.1095 H       
  32 H32           -3.6256    -1.6140     0.7960 H       
  33 H33           -4.4482    -0.2032     0.4016 H       
  34 H34            3.4246     3.2917    -0.3973 H       
  35 H35            4.0660     5.0622     1.1877 H       
  36 H36            2.5790     5.6352     3.0634 H       
  37 H37            0.4476     4.4402     3.3587 H       
  38 H38           -0.2040     2.6723     1.7750 H       
@<TRIPOS>BOND
   1    1    2 ar
   2    1   16 1
   3    1    6 ar
   4    2    3 ar
   5    2   24 1
   6    3    4 ar
   7    3   25 1
   8    4    5 ar
   9    4   17 1
  10    5    6 ar
  11    5    7 1
  12    6   26 1
  13    7    8 am
  14    7   14 2
  15    8    9 1
  16    8   27 1
  17    9   10 2
  18    9   13 1
  19   10   11 1
  20   11   12 2
  21   11   15 1
  22   12   13 1
  23   12   28 1
  24   15   29 1
  25   15   30 1
  26   15   31 1
  27   16   18 1
  28   17   32 1
  29   17   33 1
  30   18   19 ar
  31   18   23 ar
  32   19   20 ar
  33   19   34 1
  34   20   21 ar
  35   20   35 1
  36   21   22 ar
  37   21   36 1
  38   22   23 ar
  39   22   37 1
  40   23   38 1

#	End of record

