#	Name: ASD04882595
#	Creating user name:	WinNT
#	Creation time:	15. 06. 2019 20:55

#	Modifying user name:	WinNT
#	Modification time:	15. 06. 2019 20:55

#	Program:	/corina/corina34_cracker 3.40 0067  02.08.2006

@<TRIPOS>MOLECULE
ASD04882595
  72   78    0    0    0
SMALL
NO_CHARGES


@<TRIPOS>ATOM
   1 C1             0.2978     1.4147     0.0518 C.ar    
   2 C2             0.1498     0.0979    -0.3927 C.ar    
   3 C3            -1.1198    -0.4289    -0.6007 C.ar    
   4 C4            -2.2359     0.3442    -0.3697 C.ar    
   5 C5            -2.0950     1.6619     0.0744 C.ar    
   6 C6            -0.8199     2.1921     0.2902 C.ar    
   7 N7             1.2755    -0.6872    -0.6279 N.3     
   8 C8             1.2702    -1.8843     0.2245 C.3     
   9 C9             1.3736    -1.0553    -2.0472 C.3     
  10 C10            2.6622    -1.8483    -2.2779 C.3     
  11 N11            2.6569    -3.0454    -1.4255 N.3     
  12 C12            2.5588    -2.6772    -0.0062 C.3     
  13 C13           -3.2908     2.4900     0.3212 C.2     
  14 O14           -3.1698     3.6747     0.5668 O.2     
  15 N15           -4.5173     1.9333     0.2746 N.am    
  16 N16            1.5778     1.9444     0.2609 N.am    
  17 C17            3.7861    -3.8329    -1.6614 C.ar    
  18 C18            3.6419    -5.1417    -2.1031 C.ar    
  19 C19            4.7607    -5.9176    -2.3359 C.ar    
  20 C20            6.0230    -5.3928    -2.1293 C.ar    
  21 C21            6.1702    -4.0898    -1.6895 C.ar    
  22 C22            5.0562    -3.3069    -1.4603 C.ar    
  23 C23            1.7496     2.9755     1.1117 C.2     
  24 C24            3.0661     3.6102     1.2385 C.2     
  25 C25            4.2021     3.2695     0.5656 C.2     
  26 N26            5.1720     4.0946     0.9727 N.2     
  27 C27            4.6836     4.9202     1.8592 C.2     
  28 O28            3.3869     4.6512     2.0416 O.3     
  29 O29            0.8127     3.3800     1.7748 O.2     
  30 C30            2.2663    -5.7149    -2.3277 C.3     
  31 C31            5.4573     6.0067     2.5605 C.3     
  32 C32            6.6611     5.5841     3.4051 C.3     
  33 C33            6.8768     6.2942     2.0672 C.3     
  34 C34           -5.9010     2.4074     0.4513 C.3     
  35 C35           -6.2679     0.9870     0.8552 C.3     
  36 C36           -5.0585     0.5872     0.0183 C.3     
  37 C37           -6.4295     0.5695     2.3151 C.3     
  38 O38           -7.4062    -0.3664     1.8079 O.3     
  39 C39           -7.6568     0.4017     0.6103 C.3     
  40 H40           -1.2311    -1.4467    -0.9445 H       
  41 H41           -3.2208    -0.0680    -0.5323 H       
  42 H42           -0.7080     3.2100     0.6334 H       
  43 H43            1.2096    -1.5853     1.2710 H       
  44 H44            0.4108    -2.5058    -0.0268 H       
  45 H45            0.5154    -1.6675    -2.3243 H       
  46 H46            1.3885    -0.1520    -2.6570 H       
  47 H47            2.7228    -2.1473    -3.3243 H       
  48 H48            3.5216    -1.2267    -2.0266 H       
  49 H49            3.4170    -2.0651     0.2709 H       
  50 H50            2.5439    -3.5806     0.6036 H       
  51 H51            2.3403     1.5691    -0.2065 H       
  52 H52            4.6493    -6.9355    -2.6794 H       
  53 H53            6.8961    -6.0019    -2.3114 H       
  54 H54            7.1577    -3.6831    -1.5287 H       
  55 H55            5.1718    -2.2894    -1.1172 H       
  56 H56            4.3003     2.4781    -0.1627 H       
  57 H57            1.9578    -5.5269    -3.3560 H       
  58 H58            2.2862    -6.7893    -2.1450 H       
  59 H59            1.5602    -5.2431    -1.6444 H       
  60 H60            4.8662     6.8516     2.9140 H       
  61 H61            6.8621     6.1512     4.3140 H       
  62 H62            6.8933     4.5203     3.4535 H       
  63 H63            7.2510     5.6975     1.2353 H       
  64 H64            7.2198     7.3284     2.0958 H       
  65 H65           -6.0132     3.1320     1.2579 H       
  66 H66           -6.3720     2.7313    -0.4768 H       
  67 H67           -5.2961     0.4021    -1.0293 H       
  68 H68           -4.4647    -0.2105     0.4647 H       
  69 H69           -5.5440     0.0975     2.7409 H       
  70 H70           -6.8508     1.3462     2.9533 H       
  71 H71           -8.4657     1.1254     0.7100 H       
  72 H72           -7.7294    -0.2013    -0.2948 H       
@<TRIPOS>BOND
   1    1    2 ar
   2    1   16 1
   3    1    6 ar
   4    2    3 ar
   5    2    7 1
   6    3    4 ar
   7    3   40 1
   8    4    5 ar
   9    4   41 1
  10    5    6 ar
  11    5   13 1
  12    6   42 1
  13    7    8 1
  14    7    9 1
  15    8   12 1
  16    8   43 1
  17    8   44 1
  18    9   10 1
  19    9   45 1
  20    9   46 1
  21   10   11 1
  22   10   47 1
  23   10   48 1
  24   11   12 1
  25   11   17 1
  26   12   49 1
  27   12   50 1
  28   13   14 2
  29   13   15 am
  30   15   34 1
  31   15   36 1
  32   16   23 am
  33   16   51 1
  34   17   18 ar
  35   17   22 ar
  36   18   19 ar
  37   18   30 1
  38   19   20 ar
  39   19   52 1
  40   20   21 ar
  41   20   53 1
  42   21   22 ar
  43   21   54 1
  44   22   55 1
  45   23   24 1
  46   23   29 2
  47   24   25 2
  48   24   28 1
  49   25   26 1
  50   25   56 1
  51   26   27 2
  52   27   28 1
  53   27   31 1
  54   30   57 1
  55   30   58 1
  56   30   59 1
  57   31   32 1
  58   31   33 1
  59   31   60 1
  60   32   33 1
  61   32   61 1
  62   32   62 1
  63   33   63 1
  64   33   64 1
  65   34   35 1
  66   34   65 1
  67   34   66 1
  68   35   36 1
  69   35   37 1
  70   35   39 1
  71   36   67 1
  72   36   68 1
  73   37   38 1
  74   37   69 1
  75   37   70 1
  76   38   39 1
  77   39   71 1
  78   39   72 1

#	End of record

