#	Name: ASD09890050
#	Creating user name:	WinNT
#	Creation time:	15. 06. 2019 21:24

#	Modifying user name:	WinNT
#	Modification time:	15. 06. 2019 21:24

#	Program:	/corina/corina34_cracker 3.40 0067  02.08.2006

@<TRIPOS>MOLECULE
ASD09890050
  44   46    0    0    0
SMALL
NO_CHARGES


@<TRIPOS>ATOM
   1 C1            -0.0167     1.3781     0.0096 C.ar    
   2 C2             0.0021    -0.0041     0.0020 C.ar    
   3 C3             1.2084    -0.6789    -0.0132 C.ar    
   4 C4             2.3960     0.0285    -0.0212 C.ar    
   5 C5             2.3773     1.4107    -0.0145 C.ar    
   6 C6             1.1710     2.0855     0.0021 C.ar    
   7 C7             3.6720     2.1819    -0.0228 C.3     
   8 C8             4.0969     2.4497    -1.4680 C.3     
   9 C9             5.3916     3.2209    -1.4763 C.2     
  10 N10            6.6536     2.6886    -1.4904 N.pl3   
  11 C11            7.5054     3.7591    -1.4937 C.2     
  12 N12            6.7619     4.8412    -1.4820 N.2     
  13 N13            5.5182     4.5178    -1.4771 N.2     
  14 S14            9.2662     3.6974    -1.5095 S.3     
  15 C15            9.6428     5.4678    -1.5058 C.3     
  16 C16           11.1555     5.6672    -1.3927 C.3     
  17 C17            9.1411     6.0986    -2.8063 C.3     
  18 C18            7.0003     1.3297    -1.4989 C.ar    
  19 C19            7.6537     0.7855    -2.5961 C.ar    
  20 C20            7.9943    -0.5531    -2.6014 C.ar    
  21 C21            7.6850    -1.3509    -1.5152 C.ar    
  22 C22            7.0341    -0.8116    -0.4209 C.ar    
  23 C23            6.6958     0.5275    -0.4077 C.ar    
  24 H24           -0.9258    -0.5567     0.0083 H       
  25 H25           -0.9592     1.9054     0.0170 H       
  26 H26            1.2231    -1.7588    -0.0184 H       
  27 H27            3.3386    -0.4987    -0.0324 H       
  28 H28            1.1563     3.1654     0.0069 H       
  29 H29            3.5335     3.1300     0.4968 H       
  30 H30            4.4443     1.6008     0.4812 H       
  31 H31            4.2354     1.5016    -1.9876 H       
  32 H32            3.3246     3.0308    -1.9720 H       
  33 H33            9.1494     5.9424    -0.6577 H       
  34 H34           11.6490     5.1925    -2.2408 H       
  35 H35           11.3823     6.7333    -1.3905 H       
  36 H36           11.5130     5.2177    -0.4663 H       
  37 H37            8.0634     5.9566    -2.8869 H       
  38 H38            9.3679     7.1648    -2.8041 H       
  39 H39            9.6346     5.6240    -3.6544 H       
  40 H40            7.8952     1.4081    -3.4449 H       
  41 H41            8.5023    -0.9771    -3.4549 H       
  42 H42            7.9519    -2.3974    -1.5217 H       
  43 H43            6.7938    -1.4371     0.4261 H       
  44 H44            6.1877     0.9483     0.4475 H       
@<TRIPOS>BOND
   1    1    2 ar
   2    1    6 ar
   3    1   25 1
   4    2    3 ar
   5    2   24 1
   6    3    4 ar
   7    3   26 1
   8    4    5 ar
   9    4   27 1
  10    5    6 ar
  11    5    7 1
  12    6   28 1
  13    7    8 1
  14    7   29 1
  15    7   30 1
  16    8    9 1
  17    8   31 1
  18    8   32 1
  19    9   10 1
  20    9   13 2
  21   10   11 1
  22   10   18 1
  23   11   12 2
  24   11   14 1
  25   12   13 1
  26   14   15 1
  27   15   16 1
  28   15   17 1
  29   15   33 1
  30   16   34 1
  31   16   35 1
  32   16   36 1
  33   17   37 1
  34   17   38 1
  35   17   39 1
  36   18   19 ar
  37   18   23 ar
  38   19   20 ar
  39   19   40 1
  40   20   21 ar
  41   20   41 1
  42   21   22 ar
  43   21   42 1
  44   22   23 ar
  45   22   43 1
  46   23   44 1

#	End of record

