#	Name: ASD01916008
#	Creating user name:	WinNT
#	Creation time:	15. 06. 2019 20:06

#	Modifying user name:	WinNT
#	Modification time:	15. 06. 2019 20:06

#	Program:	/corina/corina34_cracker 3.40 0067  02.08.2006

@<TRIPOS>MOLECULE
ASD01916008
  41   43    0    0    0
SMALL
NO_CHARGES


@<TRIPOS>ATOM
   1 C1            -0.0246     1.4106    -0.0929 C.ar    
   2 C2            -0.0007     0.0090    -0.0582 C.ar    
   3 C3            -1.2048    -0.6668    -0.0212 C.ar    
   4 C4            -2.3953     0.0615    -0.0197 C.ar    
   5 C5            -3.6887    -0.6551     0.0202 C.2     
   6 N6            -4.8383     0.0362     0.1509 N.am    
   7 O7            -3.7148    -1.8673    -0.0648 O.2     
   8 C8            -6.1249    -0.6592     0.0654 C.3     
   9 C9             1.1968     2.1571    -0.1318 C.1     
  10 C10            2.1981     2.7691    -0.1637 C.1     
  11 C11            3.4195     3.5157    -0.2027 C.ar    
  12 C12            3.3877     4.9121    -0.2371 C.ar    
  13 C13            5.8220     3.5752    -0.2377 C.ar    
  14 C14            4.5704     5.6253    -0.2741 C.ar    
  15 N15           -2.3827     1.3897    -0.0532 N.ar    
  16 C16           -1.2612     2.0700    -0.0948 C.ar    
  17 C17            4.6492     2.8508    -0.2006 C.ar    
  18 C18            5.7849     4.9579    -0.2771 C.ar    
  19 F19            4.5428     6.9756    -0.3079 F       
  20 C20           -7.3446     0.2663     0.2343 C.3     
  21 O21           -7.9134    -0.4697    -0.8672 O.3     
  22 C22           -6.6247    -0.8678    -1.3766 C.3     
  23 C23           -4.8013     1.4829     0.3783 C.3     
  24 C24           -6.1816    -1.9200     0.9303 C.3     
  25 H25            0.9359    -0.5287    -0.0606 H       
  26 H26           -1.2247    -1.7463     0.0058 H       
  27 H27            2.4413     5.4325    -0.2352 H       
  28 H28            6.7721     3.0618    -0.2399 H       
  29 H29           -1.2913     3.1493    -0.1207 H       
  30 H30            4.6807     1.7717    -0.1695 H       
  31 H31            6.7069     5.5197    -0.3057 H       
  32 H32           -7.8749     0.1295     1.1768 H       
  33 H33           -7.1393     1.3123     0.0066 H       
  34 H34           -6.1996    -0.1681    -2.0962 H       
  35 H35           -6.5839    -1.9042    -1.7119 H       
  36 H36           -4.7090     1.9988    -0.5774 H       
  37 H37           -5.7204     1.7966     0.8732 H       
  38 H38           -3.9468     1.7299     1.0085 H       
  39 H39           -6.0188    -1.6521     1.9742 H       
  40 H40           -7.1594    -2.3899     0.8240 H       
  41 H41           -5.4071    -2.6163     0.6088 H       
@<TRIPOS>BOND
   1    1    2 ar
   2    1    9 1
   3    1   16 ar
   4    2    3 ar
   5    2   25 1
   6    3    4 ar
   7    3   26 1
   8    4   15 ar
   9    4    5 1
  10    5    6 am
  11    5    7 2
  12    6    8 1
  13    6   23 1
  14    8   20 1
  15    8   24 1
  16    8   22 1
  17    9   10 3
  18   10   11 1
  19   11   12 ar
  20   11   17 ar
  21   12   14 ar
  22   12   27 1
  23   13   18 ar
  24   13   17 ar
  25   13   28 1
  26   14   19 1
  27   14   18 ar
  28   15   16 ar
  29   16   29 1
  30   17   30 1
  31   18   31 1
  32   20   21 1
  33   20   32 1
  34   20   33 1
  35   21   22 1
  36   22   34 1
  37   22   35 1
  38   23   36 1
  39   23   37 1
  40   23   38 1
  41   24   39 1
  42   24   40 1
  43   24   41 1

#	End of record

