#	Name: ASD03320099
#	Creating user name:	WinNT
#	Creation time:	15. 06. 2019 20:36

#	Modifying user name:	WinNT
#	Modification time:	15. 06. 2019 20:36

#	Program:	/corina/corina34_cracker 3.40 0067  02.08.2006

@<TRIPOS>MOLECULE
ASD03320099
  38   40    0    0    0
SMALL
NO_CHARGES


@<TRIPOS>ATOM
   1 C1            -0.0077     1.3433    -0.1945 C.ar    
   2 C2             0.0217    -0.0349     0.0275 C.ar    
   3 C3            -1.1538    -0.7587     0.0437 C.ar    
   4 C4            -2.3644    -0.1254    -0.1594 C.ar    
   5 C5            -2.4069     1.2506    -0.3822 C.ar    
   6 C6            -1.2278     1.9876    -0.3942 C.ar    
   7 C7             1.2512     2.1182    -0.2118 C.2     
   8 O8             1.2237     3.3181    -0.4053 O.2     
   9 N9             2.4292     1.4944    -0.0131 N.am    
  10 C10            3.6280     2.2094    -0.1264 C.ar    
  11 C11           -3.7092     1.9281    -0.6005 C.ar    
  12 C12            3.6885     3.5338     0.2864 C.ar    
  13 C13            4.8709     4.2382     0.1744 C.ar    
  14 C14            5.9979     3.6232    -0.3510 C.ar    
  15 C15            5.9382     2.3001    -0.7636 C.ar    
  16 C16            4.7582     1.5926    -0.6464 C.ar    
  17 O17            7.1616     4.3177    -0.4619 O.3     
  18 C18            8.2824     3.6221    -1.0115 C.3     
  19 Cl19           9.7072     4.7257    -1.0651 Cl      
  20 C20           -4.9051     1.2062    -0.5869 C.ar    
  21 N21           -6.0430     1.8491    -0.7853 N.ar    
  22 C22           -6.0588     3.1507    -0.9936 C.ar    
  23 N23           -4.9536     3.8690    -1.0147 N.ar    
  24 C24           -3.7734     3.3063    -0.8195 C.ar    
  25 F25            8.5810     2.5135    -0.2121 F       
  26 F26            7.9755     3.1936    -2.3074 F       
  27 H27            0.9654    -0.5355     0.1865 H       
  28 H28           -1.1267    -1.8246     0.2154 H       
  29 H29           -3.2804    -0.6974    -0.1459 H       
  30 H30           -1.2563     3.0534    -0.5664 H       
  31 H31            2.4468     0.5502     0.2084 H       
  32 H32            2.8110     4.0130     0.6948 H       
  33 H33            4.9181     5.2683     0.4954 H       
  34 H34            6.8160     1.8221    -1.1728 H       
  35 H35            4.7119     0.5624    -0.9674 H       
  36 H36           -4.9000     0.1396    -0.4173 H       
  37 H37           -7.0065     3.6439    -1.1521 H       
  38 H38           -2.8722     3.9013    -0.8380 H       
@<TRIPOS>BOND
   1    1    2 ar
   2    1    7 1
   3    1    6 ar
   4    2    3 ar
   5    2   27 1
   6    3    4 ar
   7    3   28 1
   8    4    5 ar
   9    4   29 1
  10    5    6 ar
  11    5   11 1
  12    6   30 1
  13    7    8 2
  14    7    9 am
  15    9   10 1
  16    9   31 1
  17   10   12 ar
  18   10   16 ar
  19   11   20 ar
  20   11   24 ar
  21   12   13 ar
  22   12   32 1
  23   13   14 ar
  24   13   33 1
  25   14   15 ar
  26   14   17 1
  27   15   16 ar
  28   15   34 1
  29   16   35 1
  30   17   18 1
  31   18   19 1
  32   18   25 1
  33   18   26 1
  34   20   21 ar
  35   20   36 1
  36   21   22 ar
  37   22   23 ar
  38   22   37 1
  39   23   24 ar
  40   24   38 1

#	End of record

