#	Name: ASD03090011
#	Creating user name:	WinNT
#	Creation time:	15. 06. 2019 20:28

#	Modifying user name:	WinNT
#	Modification time:	15. 06. 2019 20:28

#	Program:	/corina/corina34_cracker 3.40 0067  02.08.2006

@<TRIPOS>MOLECULE
ASD03090011
  32   33    0    0    0
SMALL
NO_CHARGES


@<TRIPOS>ATOM
   1 C1            -0.0197     1.3693    -0.0060 C.ar    
   2 C2             0.0742     0.1336    -0.6198 C.ar    
   3 C3             1.2838    -0.5405    -0.6390 C.ar    
   4 C4             2.4051     0.0290    -0.0394 C.ar    
   5 C5             2.3047     1.2686     0.5741 C.ar    
   6 C6             1.0929     1.9359     0.5897 C.ar    
   7 Cl7            0.9684     3.4876     1.3579 Cl      
   8 O8             1.3769    -1.7562    -1.2416 O.3     
   9 N9             3.6313    -0.6494    -0.0558 N.am    
  10 C10            4.7836     0.0435    -0.1487 C.2     
  11 N11            5.9651    -0.5983    -0.0563 N.am    
  12 C12            7.1594     0.0991    -0.2735 C.ar    
  13 C13            7.1627     1.2464    -1.0548 C.ar    
  14 C14            8.3429     1.9326    -1.2674 C.ar    
  15 C15            9.5203     1.4778    -0.7034 C.ar    
  16 C16            9.5214     0.3352     0.0758 C.ar    
  17 C17            8.3434    -0.3524     0.2975 C.ar    
  18 O18            4.7572     1.2476    -0.3160 O.2     
  19 Cl19           8.3450    -1.7864     1.2761 Cl      
  20 C20            8.3468     3.1781    -2.1157 C.3     
  21 F21            8.1160     4.2950    -1.3053 F       
  22 F22            9.5884     3.3086    -2.7469 F       
  23 F23            7.3395     3.0872    -3.0823 F       
  24 H24           -0.9628     1.8954     0.0044 H       
  25 H25           -0.7962    -0.3060    -1.0840 H       
  26 H26            3.1719     1.7126     1.0400 H       
  27 H27            1.6113    -1.7137    -2.1788 H       
  28 H28            3.6507    -1.6176    -0.0002 H       
  29 H29            5.9880    -1.5434     0.1607 H       
  30 H30            6.2436     1.6021    -1.4965 H       
  31 H31           10.4415     2.0159    -0.8719 H       
  32 H32           10.4429    -0.0177     0.5147 H       
@<TRIPOS>BOND
   1    1    2 ar
   2    1    6 ar
   3    1   24 1
   4    2    3 ar
   5    2   25 1
   6    3    4 ar
   7    3    8 1
   8    4    5 ar
   9    4    9 1
  10    5    6 ar
  11    5   26 1
  12    6    7 1
  13    8   27 1
  14    9   10 am
  15    9   28 1
  16   10   11 am
  17   10   18 2
  18   11   12 1
  19   11   29 1
  20   12   13 ar
  21   12   17 ar
  22   13   14 ar
  23   13   30 1
  24   14   15 ar
  25   14   20 1
  26   15   16 ar
  27   15   31 1
  28   16   17 ar
  29   16   32 1
  30   17   19 1
  31   20   21 1
  32   20   22 1
  33   20   23 1

#	End of record

