#	Name: ASD01901083
#	Creating user name:	WinNT
#	Creation time:	15. 06. 2019 19:53

#	Modifying user name:	WinNT
#	Modification time:	15. 06. 2019 19:53

#	Program:	/corina/corina34_cracker 3.40 0067  02.08.2006

@<TRIPOS>MOLECULE
ASD01901083
  44   46    0    0    0
SMALL
NO_CHARGES


@<TRIPOS>ATOM
   1 C1            -0.0184     1.5028     0.0103 C.2     
   2 C2             0.0021    -0.0041     0.0020 C.3     
   3 C3             2.4697     1.5816    -0.0130 C.ar    
   4 C4             1.2427     2.2539     0.0023 C.ar    
   5 C5             1.2360     3.6600     0.0094 C.ar    
   6 C6             2.4352     4.3178     0.0011 C.ar    
   7 C7             3.6197     3.5821    -0.0141 C.ar    
   8 N8             3.5998     2.2555    -0.0211 N.ar    
   9 N9             4.8336     4.2453    -0.0226 N.3     
  10 C10            5.9535     3.2939    -0.0383 C.3     
  11 C11            7.2729     4.0644    -0.1276 C.3     
  12 N12            7.3802     4.9809     1.0161 N.3     
  13 C13            6.2604     5.9324     1.0318 C.3     
  14 C14            4.9410     5.1619     1.1211 C.3     
  15 C15            8.6694     5.6852     1.0071 C.3     
  16 O16           -1.3386    -0.4987     0.0122 O.3     
  17 C17           -1.4983    -1.8484     0.0064 C.ar    
  18 C18           -2.7733    -2.3978     0.0157 C.ar    
  19 C19           -2.9327    -3.7705     0.0099 C.ar    
  20 C20           -1.8235    -4.5962    -0.0051 C.ar    
  21 C21           -0.5531    -4.0513    -0.0139 C.ar    
  22 C22           -0.3882    -2.6792    -0.0144 C.ar    
  23 Br23          -4.2902    -1.2689     0.0368 Br      
  24 O24           -1.0770     2.0949     0.0185 O.2     
  25 H25            0.5123    -0.3556    -0.8948 H       
  26 H26            0.5293    -0.3651     0.8851 H       
  27 H27            2.4894     0.5018    -0.0141 H       
  28 H28            0.3054     4.2080     0.0209 H       
  29 H29            2.4645     5.3974     0.0059 H       
  30 H30            5.9398     2.7010     0.8762 H       
  31 H31            5.8584     2.6345    -0.9010 H       
  32 H32            8.1061     3.3619    -0.1102 H       
  33 H33            7.2981     4.6361    -1.0553 H       
  34 H34            6.3555     6.5918     1.8945 H       
  35 H35            6.2741     6.5253     0.1173 H       
  36 H36            4.1077     5.8643     1.1037 H       
  37 H37            4.9158     4.5902     2.0488 H       
  38 H38            8.7617     6.2622     0.0870 H       
  39 H39            8.7225     6.3568     1.8640 H       
  40 H40            9.4804     4.9592     1.0637 H       
  41 H41           -3.9241    -4.1987     0.0174 H       
  42 H42           -1.9500    -5.6688    -0.0096 H       
  43 H43            0.3114    -4.6985    -0.0252 H       
  44 H44            0.6046    -2.2543    -0.0264 H       
@<TRIPOS>BOND
   1    1    2 1
   2    1    4 1
   3    1   24 2
   4    2   16 1
   5    2   25 1
   6    2   26 1
   7    3    4 ar
   8    3    8 ar
   9    3   27 1
  10    4    5 ar
  11    5    6 ar
  12    5   28 1
  13    6    7 ar
  14    6   29 1
  15    7    8 ar
  16    7    9 1
  17    9   10 1
  18    9   14 1
  19   10   11 1
  20   10   30 1
  21   10   31 1
  22   11   12 1
  23   11   32 1
  24   11   33 1
  25   12   13 1
  26   12   15 1
  27   13   14 1
  28   13   34 1
  29   13   35 1
  30   14   36 1
  31   14   37 1
  32   15   38 1
  33   15   39 1
  34   15   40 1
  35   16   17 1
  36   17   18 ar
  37   17   22 ar
  38   18   19 ar
  39   18   23 1
  40   19   20 ar
  41   19   41 1
  42   20   21 ar
  43   20   42 1
  44   21   22 ar
  45   21   43 1
  46   22   44 1

#	End of record

