#	Name: ASD01810589
#	Creating user name:	WinNT
#	Creation time:	15. 06. 2019 19:24

#	Modifying user name:	WinNT
#	Modification time:	15. 06. 2019 19:24

#	Program:	/corina/corina34_cracker 3.40 0067  02.08.2006

@<TRIPOS>MOLECULE
ASD01810589
  62   66    0    0    0
SMALL
NO_CHARGES


@<TRIPOS>ATOM
   1 C1            -0.2018     1.3907    -0.0339 C.2     
   2 C2            -0.2316    -0.0747     0.1330 C.ar    
   3 C3             0.8617    -0.8590    -0.2666 C.ar    
   4 C4             0.7908    -2.2146    -0.0926 C.ar    
   5 C5            -0.3552    -2.7728     0.4716 C.ar    
   6 N6            -1.3744    -2.0090     0.8407 N.ar    
   7 C7            -1.3449    -0.7005     0.6958 C.ar    
   8 O8             0.7748     1.9275    -0.5207 O.2     
   9 N9            -1.2592     2.1341     0.3480 N.am    
  10 C10           -1.1953     3.5302     0.2766 C.ar    
  11 C11           -2.3431     4.2659    -0.0017 C.ar    
  12 C12           -2.2845     5.6461    -0.0737 C.ar    
  13 C13           -1.0877     6.3018     0.1303 C.ar    
  14 C14            0.0693     5.5723     0.4100 C.ar    
  15 C15            0.0094     4.1803     0.4885 C.ar    
  16 C16            1.3524     6.2726     0.6285 C.2     
  17 O17            2.3951     5.7528     0.2818 O.2     
  18 N18            1.3663     7.4874     1.2120 N.am    
  19 C19            0.1295     8.0776     1.7418 C.3     
  20 C20            0.3585     8.4723     3.2041 C.3     
  21 C21            1.5814     9.3880     3.2957 C.3     
  22 C22            2.8198     8.6393     2.7978 C.3     
  23 C23            2.6197     8.2440     1.3359 C.3     
  24 F24            1.3738    10.5232     2.5049 F       
  25 C25            1.7896     9.8058     4.7286 C.ar    
  26 C26            2.6286    10.8662     5.0217 C.ar    
  27 C27            2.8237    11.2540     6.3311 C.ar    
  28 C28            2.1718    10.5739     7.3617 C.ar    
  29 C29            1.3262     9.5048     7.0587 C.ar    
  30 C30            1.1364     9.1308     5.7445 C.ar    
  31 C31            2.3700    10.9706     8.7233 C.1     
  32 N32            2.5273    11.2853     9.8035 N.1     
  33 Cl33          -3.8531     3.4492    -0.2598 Cl      
  34 N34           -0.4305    -4.1440     0.6487 N.3     
  35 C35           -1.7178    -4.5284     1.2570 C.3     
  36 C36           -1.7573    -5.7180     0.2875 C.3     
  37 C37           -0.8786    -4.8127    -0.5871 C.3     
  38 H38            1.7387    -0.4032    -0.7018 H       
  39 H39            1.6150    -2.8461    -0.3900 H       
  40 H40           -2.1907    -0.1074     1.0109 H       
  41 H41           -2.0644     1.7013     0.6723 H       
  42 H42           -3.1782     6.2123    -0.2907 H       
  43 H43           -1.0459     7.3795     0.0733 H       
  44 H44            0.9006     3.6113     0.7090 H       
  45 H45           -0.1311     8.9624     1.1610 H       
  46 H46           -0.6782     7.3481     1.6824 H       
  47 H47           -0.5188     8.9983     3.5807 H       
  48 H48            0.5297     7.5760     3.8004 H       
  49 H49            3.6943     9.2840     2.8852 H       
  50 H50            2.9678     7.7414     3.3979 H       
  51 H51            3.4545     7.6242     1.0088 H       
  52 H52            2.5663     9.1427     0.7213 H       
  53 H53            3.1321    11.3914     4.2235 H       
  54 H54            3.4794    12.0815     6.5586 H       
  55 H55            0.8190     8.9745     7.8511 H       
  56 H56            0.4795     8.3067     5.5084 H       
  57 H57           -1.6330    -4.8233     2.3029 H       
  58 H58           -2.5128    -3.8025     1.0862 H       
  59 H59           -1.2512    -6.6105     0.6554 H       
  60 H60           -2.7434    -5.9209    -0.1300 H       
  61 H61           -1.4496    -4.1626    -1.2500 H       
  62 H62           -0.0824    -5.3485    -1.1040 H       
@<TRIPOS>BOND
   1    1    2 1
   2    1    8 2
   3    1    9 am
   4    2    3 ar
   5    2    7 ar
   6    3    4 ar
   7    3   38 1
   8    4    5 ar
   9    4   39 1
  10    5    6 ar
  11    5   34 1
  12    6    7 ar
  13    7   40 1
  14    9   10 1
  15    9   41 1
  16   10   11 ar
  17   10   15 ar
  18   11   12 ar
  19   11   33 1
  20   12   13 ar
  21   12   42 1
  22   13   14 ar
  23   13   43 1
  24   14   15 ar
  25   14   16 1
  26   15   44 1
  27   16   17 2
  28   16   18 am
  29   18   19 1
  30   18   23 1
  31   19   20 1
  32   19   45 1
  33   19   46 1
  34   20   21 1
  35   20   47 1
  36   20   48 1
  37   21   22 1
  38   21   24 1
  39   21   25 1
  40   22   23 1
  41   22   49 1
  42   22   50 1
  43   23   51 1
  44   23   52 1
  45   25   26 ar
  46   25   30 ar
  47   26   27 ar
  48   26   53 1
  49   27   28 ar
  50   27   54 1
  51   28   29 ar
  52   28   31 1
  53   29   30 ar
  54   29   55 1
  55   30   56 1
  56   31   32 3
  57   34   35 1
  58   34   37 1
  59   35   36 1
  60   35   57 1
  61   35   58 1
  62   36   37 1
  63   36   59 1
  64   36   60 1
  65   37   61 1
  66   37   62 1

#	End of record

