#	Name: ASD01881745
#	Creating user name:	WinNT
#	Creation time:	15. 06. 2019 19:43

#	Modifying user name:	WinNT
#	Modification time:	15. 06. 2019 19:43

#	Program:	/corina/corina34_cracker 3.40 0067  02.08.2006

@<TRIPOS>MOLECULE
ASD01881745
  43   45    0    0    0
SMALL
NO_CHARGES


@<TRIPOS>ATOM
   1 C1            -0.0184     1.5028     0.0103 C.2     
   2 C2             0.0021    -0.0041     0.0020 C.3     
   3 O3             1.0197     2.1211     0.0037 O.2     
   4 O4            -1.1898     2.1580     0.0194 O.3     
   5 O5             1.3556    -0.4620    -0.0134 O.3     
   6 N6             2.4198    -5.8351    -0.0519 N.pl3   
   7 N7             3.8173    -5.7157    -0.0652 N.2     
   8 N8             4.1407    -4.4707    -0.0622 N.2     
   9 C9             3.0352    -3.6995    -0.0472 C.ar    
  10 C10            1.9186    -4.5534    -0.0404 C.ar    
  11 C11            2.8360    -2.3121    -0.0374 C.ar    
  12 C12            1.5521    -1.8076    -0.0225 C.ar    
  13 C13            0.4556    -2.6664    -0.0161 C.ar    
  14 C14            0.6344    -4.0210    -0.0241 C.ar    
  15 C15            1.6459    -7.0791    -0.0558 C.3     
  16 C16            1.3910    -7.5257     1.3851 C.3     
  17 C17            0.4951    -8.7476     1.5980 C.3     
  18 C18            2.0033    -8.8549     1.8316 C.3     
  19 Br19           4.3187    -1.1385    -0.0457 Br      
  20 C20           -1.1335     3.6089     0.0270 C.3     
  21 C21           -0.3989     4.0974    -1.2231 C.3     
  22 C22           -2.5551     4.1744     0.0369 C.3     
  23 C23           -0.3871     4.0838     1.2754 C.3     
  24 H24           -0.4983    -0.3791     0.8948 H       
  25 H25           -0.5153    -0.3696    -0.8850 H       
  26 H26           -0.5443    -2.2582    -0.0041 H       
  27 H27           -0.2224    -4.6786    -0.0189 H       
  28 H28            0.6932    -6.9127    -0.5586 H       
  29 H29            2.2045    -7.8527    -0.5826 H       
  30 H30            1.3335    -6.7249     2.1223 H       
  31 H31           -0.1516    -8.7508     2.4755 H       
  32 H32            0.0873    -9.2332     0.7115 H       
  33 H33            2.5878    -9.4111     1.0987 H       
  34 H34            2.3489    -8.9287     2.8627 H       
  35 H35           -0.9307     3.7591    -2.1124 H       
  36 H36           -0.3567     5.1865    -1.2173 H       
  37 H37            0.6139     3.6945    -1.2301 H       
  38 H38           -3.0784     3.8265     0.9275 H       
  39 H39           -2.5128     5.2636     0.0426 H       
  40 H40           -3.0869     3.8361    -0.8525 H       
  41 H41            0.6257     3.6809     1.2684 H       
  42 H42           -0.3448     5.1730     1.2811 H       
  43 H43           -0.9104     3.7358     2.1659 H       
@<TRIPOS>BOND
   1    1    2 1
   2    1    3 2
   3    1    4 1
   4    2    5 1
   5    2   24 1
   6    2   25 1
   7    4   20 1
   8    5   12 1
   9    6    7 1
  10    6   10 1
  11    6   15 1
  12    7    8 2
  13    8    9 1
  14    9   10 ar
  15    9   11 ar
  16   10   14 ar
  17   11   12 ar
  18   11   19 1
  19   12   13 ar
  20   13   14 ar
  21   13   26 1
  22   14   27 1
  23   15   16 1
  24   15   28 1
  25   15   29 1
  26   16   17 1
  27   16   18 1
  28   16   30 1
  29   17   18 1
  30   17   31 1
  31   17   32 1
  32   18   33 1
  33   18   34 1
  34   20   21 1
  35   20   23 1
  36   20   22 1
  37   21   35 1
  38   21   36 1
  39   21   37 1
  40   22   38 1
  41   22   39 1
  42   22   40 1
  43   23   41 1
  44   23   42 1
  45   23   43 1

#	End of record

