#	Name: ASD01880433
#	Creating user name:	WinNT
#	Creation time:	15. 06. 2019 19:40

#	Modifying user name:	WinNT
#	Modification time:	15. 06. 2019 19:40

#	Program:	/corina/corina34_cracker 3.40 0067  02.08.2006

@<TRIPOS>MOLECULE
ASD01880433
  52   56    0    0    0
SMALL
NO_CHARGES


@<TRIPOS>ATOM
   1 C1            -0.0169     1.3931     0.0097 C.ar    
   2 C2             0.0021    -0.0041     0.0020 C.ar    
   3 C3             1.2139    -0.6908    -0.0127 C.ar    
   4 C4             2.4023     0.0192    -0.0202 C.ar    
   5 C5             2.3728     1.4246    -0.0129 C.ar    
   6 C6             1.1520     2.1001     0.0023 C.ar    
   7 N7             3.6288    -0.6377    -0.0344 N.pl3   
   8 C8             4.7929     0.0688    -0.0413 C.2     
   9 N9             4.8013     1.4563    -0.0346 N.am    
  10 C10            3.6498     2.1584    -0.0207 C.2     
  11 N11            3.9497    -2.0027    -0.0439 N.2     
  12 C12            5.2610    -2.1200    -0.0562 C.2     
  13 C13            5.8181    -0.8299    -0.0549 C.2     
  14 C14            6.0808     2.1697    -0.0422 C.3     
  15 O15            3.6657     3.3751    -0.0152 O.2     
  16 C16           -1.2736    -0.7591     0.0101 C.ar    
  17 C17            6.0201    -3.3951    -0.0693 C.ar    
  18 C18            5.3420    -4.6112    -0.0697 C.ar    
  19 C19            6.0563    -5.7983    -0.0818 C.ar    
  20 C20            7.4439    -5.7733    -0.0931 C.ar    
  21 C21            8.1176    -4.5660    -0.0923 C.ar    
  22 C22            7.4137    -3.3787    -0.0869 C.ar    
  23 C23           -2.4895    -0.0764     0.0253 C.ar    
  24 C24           -3.6741    -0.7815     0.0323 C.ar    
  25 C25           -3.6575    -2.1700     0.0242 C.ar    
  26 C26           -2.4484    -2.8528     0.0090 C.ar    
  27 C27           -1.2603    -2.1535    -0.0034 C.ar    
  28 O28            5.3981    -6.9873    -0.0823 O.3     
  29 C29            6.1978    -8.1715    -0.0951 C.3     
  30 O30           -4.8265    -2.8619     0.0315 O.3     
  31 C31           -4.7364    -4.2880     0.0225 C.3     
  32 H32           -0.9612     1.9171     0.0170 H       
  33 H33            1.2262    -1.7708    -0.0179 H       
  34 H34            1.1312     3.1799     0.0076 H       
  35 H35            6.8716    -0.5924    -0.0637 H       
  36 H36            6.3892     2.3516    -1.0717 H       
  37 H37            5.9692     3.1214     0.4773 H       
  38 H38            6.8359     1.5668     0.4622 H       
  39 H39            4.2622    -4.6291    -0.0602 H       
  40 H40            7.9991    -6.6997    -0.1022 H       
  41 H41            9.1974    -4.5518    -0.1007 H       
  42 H42            7.9427    -2.4372    -0.0863 H       
  43 H43           -2.5031     1.0035     0.0319 H       
  44 H44           -4.6161    -0.2534     0.0444 H       
  45 H45           -2.4387    -3.9327     0.0031 H       
  46 H46           -0.3202    -2.6850    -0.0155 H       
  47 H47            6.8194    -8.1805    -0.9905 H       
  48 H48            6.8346    -8.1895     0.7894 H       
  49 H49            5.5495    -9.0477    -0.0940 H       
  50 H50           -4.2093    -4.6131    -0.8745 H       
  51 H51           -4.1920    -4.6233     0.9053 H       
  52 H52           -5.7390    -4.7155     0.0298 H       
@<TRIPOS>BOND
   1    1    2 ar
   2    1    6 ar
   3    1   32 1
   4    2    3 ar
   5    2   16 1
   6    3    4 ar
   7    3   33 1
   8    4    5 ar
   9    4    7 1
  10    5    6 ar
  11    5   10 1
  12    6   34 1
  13    7    8 1
  14    7   11 1
  15    8    9 1
  16    8   13 2
  17    9   10 am
  18    9   14 1
  19   10   15 2
  20   11   12 2
  21   12   13 1
  22   12   17 1
  23   13   35 1
  24   14   36 1
  25   14   37 1
  26   14   38 1
  27   16   23 ar
  28   16   27 ar
  29   17   18 ar
  30   17   22 ar
  31   18   19 ar
  32   18   39 1
  33   19   20 ar
  34   19   28 1
  35   20   21 ar
  36   20   40 1
  37   21   22 ar
  38   21   41 1
  39   22   42 1
  40   23   24 ar
  41   23   43 1
  42   24   25 ar
  43   24   44 1
  44   25   26 ar
  45   25   30 1
  46   26   27 ar
  47   26   45 1
  48   27   46 1
  49   28   29 1
  50   29   47 1
  51   29   48 1
  52   29   49 1
  53   30   31 1
  54   31   50 1
  55   31   51 1
  56   31   52 1

#	End of record

