#	Name: ASD09200009
#	Creating user name:	WinNT
#	Creation time:	15. 06. 2019 21:21

#	Modifying user name:	WinNT
#	Modification time:	15. 06. 2019 21:21

#	Program:	/corina/corina34_cracker 3.40 0067  02.08.2006

@<TRIPOS>MOLECULE
ASD09200009
  42   44    0    0    0
SMALL
NO_CHARGES


@<TRIPOS>ATOM
   1 C1            -0.0170     1.4034     0.0098 C.ar    
   2 C2             0.0021    -0.0041     0.0020 C.ar    
   3 C3             1.2378    -0.6465    -0.0132 C.ar    
   4 N4             2.3427     0.0820    -0.0199 N.ar    
   5 C5             2.2887     1.4060    -0.0122 C.ar    
   6 N6             1.1368     2.0604     0.0023 N.ar    
   7 C7            -1.2601    -0.7822     0.0104 C.ar    
   8 C8            -1.4577    -1.8042    -0.9171 C.ar    
   9 C9            -2.6336    -2.5261    -0.9054 C.ar    
  10 C10           -3.6171    -2.2371     0.0251 C.ar    
  11 C11           -3.4262    -1.2227     0.9491 C.ar    
  12 C12           -2.2502    -0.4983     0.9491 C.ar    
  13 N13            3.4699     2.1261    -0.0197 N.3     
  14 C14            4.6336     1.2288    -0.0356 C.3     
  15 C15            5.9150     2.0611    -0.1237 C.3     
  16 N16            5.9783     2.9808     1.0208 N.3     
  17 C17            4.8146     3.8781     1.0368 C.3     
  18 C18            3.5332     3.0457     1.1248 C.3     
  19 N19           -1.2177     2.0905     0.0192 N.pl3   
  20 Cl20          -4.6640    -0.8661     2.1128 Cl      
  21 C21            7.1301     1.1317    -0.0995 C.3     
  22 C22            4.9036     4.8080     2.2485 C.3     
  23 Cl23          -5.0946    -3.1484     0.0336 Cl      
  24 H24            1.2936    -1.7251    -0.0192 H       
  25 H25           -0.6917    -2.0303    -1.6440 H       
  26 H26           -2.7871    -3.3178    -1.6237 H       
  27 H27           -2.1002     0.2897     1.6722 H       
  28 H28            4.6477     0.6352     0.8785 H       
  29 H29            4.5703     0.5663    -0.8988 H       
  30 H30            5.9135     2.6341    -1.0509 H       
  31 H31            6.0551     2.4727     1.8892 H       
  32 H32            4.8006     4.4717     0.1227 H       
  33 H33            2.6676     3.7079     1.1076 H       
  34 H34            3.5348     2.4728     2.0521 H       
  35 H35           -2.0559     1.6023     0.0205 H       
  36 H36           -1.2214     3.0605     0.0245 H       
  37 H37            7.0818     0.4484    -0.9473 H       
  38 H38            8.0425     1.7247    -0.1622 H       
  39 H39            7.1316     0.5597     0.8284 H       
  40 H40            5.8172     5.3992     2.1864 H       
  41 H41            4.0403     5.4733     2.2600 H       
  42 H42            4.9166     4.2138     3.1622 H       
@<TRIPOS>BOND
   1    1    2 ar
   2    1    6 ar
   3    1   19 1
   4    2    3 ar
   5    2    7 1
   6    3    4 ar
   7    3   24 1
   8    4    5 ar
   9    5    6 ar
  10    5   13 1
  11    7    8 ar
  12    7   12 ar
  13    8    9 ar
  14    8   25 1
  15    9   10 ar
  16    9   26 1
  17   10   11 ar
  18   10   23 1
  19   11   12 ar
  20   11   20 1
  21   12   27 1
  22   13   14 1
  23   13   18 1
  24   14   15 1
  25   14   28 1
  26   14   29 1
  27   15   16 1
  28   15   21 1
  29   15   30 1
  30   16   17 1
  31   16   31 1
  32   17   18 1
  33   17   22 1
  34   17   32 1
  35   18   33 1
  36   18   34 1
  37   19   35 1
  38   19   36 1
  39   21   37 1
  40   21   38 1
  41   21   39 1
  42   22   40 1
  43   22   41 1
  44   22   42 1

#	End of record

