#	Name: ASD01870495
#	Creating user name:	WinNT
#	Creation time:	15. 06. 2019 19:39

#	Modifying user name:	WinNT
#	Modification time:	15. 06. 2019 19:39

#	Program:	/corina/corina34_cracker 3.40 0067  02.08.2006

@<TRIPOS>MOLECULE
ASD01870495
  38   41    0    0    0
SMALL
NO_CHARGES


@<TRIPOS>ATOM
   1 C1            -0.0296     1.3315    -0.2302 C.ar    
   2 N2            -0.0267     0.0160    -0.1081 N.ar    
   3 C3             1.0751    -0.6681     0.1252 C.ar    
   4 C4             2.3034    -0.0318     0.2560 C.ar    
   5 C5             2.3527     1.3471     0.1361 C.ar    
   6 C6             1.1520     2.0459    -0.1139 C.ar    
   7 C7             3.4133     2.3742     0.2048 C.2     
   8 N8             2.8517     3.5815     0.0064 N.am    
   9 C9             1.5244     3.4722    -0.1879 C.2     
  10 O10            0.7603     4.3940    -0.3915 O.2     
  11 O11            4.5920     2.1645     0.4067 O.2     
  12 C12            3.5574     4.7946     0.0032 C.ar    
  13 C13            4.0890     5.2851    -1.1817 C.ar    
  14 C14            4.7828     6.4785    -1.1855 C.ar    
  15 C15            4.9494     7.1892    -0.0037 C.ar    
  16 C16            4.4179     6.6992     1.1819 C.ar    
  17 C17            3.7189     5.5074     1.1846 C.ar    
  18 Cl18           3.0484     4.8974     2.6652 Cl      
  19 N19            5.6534     8.3992    -0.0077 N.am    
  20 C20            6.4271     8.7322     1.0444 C.2     
  21 C21            7.2474     9.9541     0.9975 C.2     
  22 O22            6.4478     8.0233     2.0327 O.2     
  23 C23            8.0456    10.3482     2.0153 C.2     
  24 S24            8.8241    11.8046     1.5738 S.3     
  25 C25            8.0396    11.8036     0.0569 C.2     
  26 N26            7.2769    10.7738    -0.0566 N.2     
  27 C27            8.2200     9.6225     3.3246 C.3     
  28 H28           -0.9557     1.8515    -0.4258 H       
  29 H29            1.0224    -1.7429     0.2169 H       
  30 H30            3.2012    -0.6008     0.4475 H       
  31 H31            3.9601     4.7327    -2.1008 H       
  32 H32            5.1965     6.8596    -2.1074 H       
  33 H33            4.5473     7.2515     2.1009 H       
  34 H34            5.5844     8.9979    -0.7678 H       
  35 H35            8.1690    12.5600    -0.7030 H       
  36 H36            9.0400     8.9096     3.2384 H       
  37 H37            8.4454    10.3422     4.1116 H       
  38 H38            7.3007     9.0910     3.5706 H       
@<TRIPOS>BOND
   1    1    2 ar
   2    1    6 ar
   3    1   28 1
   4    2    3 ar
   5    3    4 ar
   6    3   29 1
   7    4    5 ar
   8    4   30 1
   9    5    7 1
  10    5    6 ar
  11    6    9 1
  12    7    8 am
  13    7   11 2
  14    8    9 am
  15    8   12 1
  16    9   10 2
  17   12   13 ar
  18   12   17 ar
  19   13   14 ar
  20   13   31 1
  21   14   15 ar
  22   14   32 1
  23   15   16 ar
  24   15   19 1
  25   16   17 ar
  26   16   33 1
  27   17   18 1
  28   19   20 am
  29   19   34 1
  30   20   21 1
  31   20   22 2
  32   21   23 2
  33   21   26 1
  34   23   24 1
  35   23   27 1
  36   24   25 1
  37   25   26 2
  38   25   35 1
  39   27   36 1
  40   27   37 1
  41   27   38 1

#	End of record

