#	Name: ASD01001001
#	Creating user name:	WinNT
#	Creation time:	15. 06. 2019 18:54

#	Modifying user name:	WinNT
#	Modification time:	15. 06. 2019 18:54

#	Program:	/corina/corina34_cracker 3.40 0067  02.08.2006

@<TRIPOS>MOLECULE
ASD01001001
  47   49    0    0    0
SMALL
NO_CHARGES


@<TRIPOS>ATOM
   1 C1             3.1747     0.8989     1.0466 C.ar    
   2 C2             2.6756    -0.3900     1.0208 C.ar    
   3 C3             2.7867     1.8098     0.0819 C.ar    
   4 C4             1.7885    -0.7679     0.0303 C.ar    
   5 C5             1.8996     1.4318    -0.9086 C.ar    
   6 C6             1.4002     0.1431    -0.9342 C.ar    
   7 C7             1.2452    -2.1733     0.0015 C.3     
   8 C8             2.3718    -3.1423    -0.2492 C.ar    
   9 C9             0.5968    -2.4883     1.3249 C.ar    
  10 S10            0.0158    -2.3192    -1.3243 S.3     
  11 C11            2.7239    -3.4728    -1.5445 C.ar    
  12 C12            3.0568    -3.6965     0.8160 C.ar    
  13 C13            0.2170    -3.7850     1.6172 C.ar    
  14 C14            0.3869    -1.4817     2.2488 C.ar    
  15 C15            3.7572    -4.3617    -1.7745 C.ar    
  16 C16            4.0902    -4.5853     0.5860 C.ar    
  17 C17           -0.3779    -4.0739     2.8310 C.ar    
  18 C18           -0.2079    -1.7707     3.4627 C.ar    
  19 C19            4.4388    -4.9198    -0.7092 C.ar    
  20 C20           -0.5925    -3.0664     3.7528 C.ar    
  21 C21           -1.3265    -1.2390    -0.7568 C.3     
  22 C22           -2.5101    -1.3472    -1.7202 C.3     
  23 N23           -3.0595    -2.7087    -1.6700 N.3     
  24 H24           -1.0572    -3.2922     4.7012 H       
  25 C25           -3.5761    -0.3603    -1.3192 C.2     
  26 O26           -4.5372    -0.7322    -0.6884 O.2     
  27 O27           -3.4578     0.9319    -1.6626 O.3     
  28 H28            3.8642     1.1955     1.8231 H       
  29 H29            2.9790    -1.1017     1.7743 H       
  30 H30            3.1764     2.8168     0.1023 H       
  31 H31            1.5960     2.1437    -1.6619 H       
  32 H32            0.7077    -0.1524    -1.7085 H       
  33 H33            2.1914    -3.0367    -2.3768 H       
  34 H34            2.7848    -3.4346     1.8278 H       
  35 H35            0.3847    -4.5721     0.8970 H       
  36 H36            0.6880    -0.4696     2.0223 H       
  37 H37            4.0318    -4.6204    -2.7865 H       
  38 H38            4.6256    -5.0180     1.4182 H       
  39 H39           -0.6753    -5.0868     3.0591 H       
  40 H40           -0.3716    -0.9843     4.1846 H       
  41 H41            5.2459    -5.6146    -0.8889 H       
  42 H42           -1.6412    -1.5442     0.2412 H       
  43 H43           -0.9750    -0.2076    -0.7274 H       
  44 H44           -2.1748    -1.1278    -2.7339 H       
  45 H45           -2.3839    -3.3834    -1.9963 H       
  46 H46           -3.3775    -2.9362    -0.7399 H       
  47 H47           -4.1667     1.5272    -1.3829 H       
@<TRIPOS>BOND
   1    1    2 ar
   2    1    3 ar
   3    1   28 1
   4    2    4 ar
   5    2   29 1
   6    3    5 ar
   7    3   30 1
   8    4    6 ar
   9    4    7 1
  10    5    6 ar
  11    5   31 1
  12    6   32 1
  13    7    8 1
  14    7    9 1
  15    7   10 1
  16    8   11 ar
  17    8   12 ar
  18    9   13 ar
  19    9   14 ar
  20   10   21 1
  21   11   15 ar
  22   11   33 1
  23   12   16 ar
  24   12   34 1
  25   13   17 ar
  26   13   35 1
  27   14   18 ar
  28   14   36 1
  29   15   19 ar
  30   15   37 1
  31   16   19 ar
  32   16   38 1
  33   17   20 ar
  34   17   39 1
  35   18   20 ar
  36   18   40 1
  37   19   41 1
  38   20   24 1
  39   21   22 1
  40   21   42 1
  41   21   43 1
  42   22   23 1
  43   22   25 1
  44   22   44 1
  45   23   45 1
  46   23   46 1
  47   25   26 2
  48   25   27 1
  49   27   47 1

#	End of record

