#	Name: ASD01883395
#	Creating user name:	WinNT
#	Creation time:	15. 06. 2019 19:46

#	Modifying user name:	WinNT
#	Modification time:	15. 06. 2019 19:46

#	Program:	/corina/corina34_cracker 3.40 0067  02.08.2006

@<TRIPOS>MOLECULE
ASD01883395
  57   60    0    0    0
SMALL
NO_CHARGES


@<TRIPOS>ATOM
   1 N1            -0.0161     1.3416     0.0134 N.am    
   2 C2            -0.0055     0.0078    -0.1666 C.2     
   3 C3            -1.2225    -0.7140    -0.1653 C.2     
   4 C4            -2.4239    -0.0108     0.0261 C.2     
   5 C5            -2.3698     1.3834     0.2090 C.2     
   6 C6            -1.1780     2.0193     0.2035 C.2     
   7 O7             1.0514    -0.5778    -0.3310 O.2     
   8 C8            -1.2298    -2.1332    -0.3559 C.1     
   9 N9            -1.2355    -3.2591    -0.5070 N.1     
  10 C10            1.2513     2.0764     0.0103 C.3     
  11 N11           -3.6309    -0.6732     0.0341 N.pl3   
  12 C12            1.5732     2.5169    -1.3945 C.ar    
  13 C13           -3.9343    -1.6769     1.0654 C.3     
  14 C14           -5.2925    -1.3386     1.6892 C.3     
  15 N15           -6.2991    -1.2162     0.6263 N.3     
  16 C16           -5.9809    -0.1079    -0.2838 C.3     
  17 C17           -4.6534    -0.3913    -0.9849 C.3     
  18 C18           -7.6461    -1.0627     1.1920 C.3     
  19 C19            1.1272     3.7429    -1.8525 C.ar    
  20 C20            1.4209     4.1490    -3.1399 C.ar    
  21 C21            2.1639     3.3256    -3.9732 C.ar    
  22 C22            2.6103     2.0960    -3.5112 C.ar    
  23 C23            2.3187     1.6969    -2.2212 C.ar    
  24 C24           -8.6127    -0.6964     0.0955 C.ar    
  25 C25           -9.2712    -1.6898    -0.6051 C.ar    
  26 C26          -10.1582    -1.3550    -1.6106 C.ar    
  27 C27          -10.3873    -0.0241    -1.9162 C.ar    
  28 C28           -9.7272     0.9699    -1.2139 C.ar    
  29 C29           -8.8446     0.6329    -0.2052 C.ar    
  30 F30          -11.2539     0.3043    -2.8992 F       
  31 O31            2.4538     3.7227    -5.2402 O.3     
  32 C32            3.2229     2.8239    -6.0418 C.3     
  33 F33            2.5351     1.6130    -6.1754 F       
  34 F34            3.4279     3.3858    -7.3065 F       
  35 F35            4.4588     2.5929    -5.4283 F       
  36 H36           -3.2806     1.9444     0.3575 H       
  37 H37           -1.1489     3.0896     0.3449 H       
  38 H38            1.1657     2.9513     0.6548 H       
  39 H39            2.0472     1.4296     0.3796 H       
  40 H40           -3.9763    -2.6671     0.6115 H       
  41 H41           -3.1626    -1.6562     1.8349 H       
  42 H42           -5.5845    -2.1321     2.3771 H       
  43 H43           -5.2191    -0.3957     2.2310 H       
  44 H44           -6.7723    -0.0088    -1.0268 H       
  45 H45           -5.8980     0.8179     0.2855 H       
  46 H46           -4.3570     0.4773    -1.5728 H       
  47 H47           -4.7612    -1.2585    -1.6365 H       
  48 H48           -7.9563    -2.0013     1.6514 H       
  49 H49           -7.6361    -0.2753     1.9456 H       
  50 H50            0.5484     4.3834    -1.2035 H       
  51 H51            1.0720     5.1066    -3.4973 H       
  52 H52            3.1889     1.4532    -4.1580 H       
  53 H53            2.6659     0.7398    -1.8610 H       
  54 H54           -9.0921    -2.7278    -0.3667 H       
  55 H55          -10.6723    -2.1312    -2.1580 H       
  56 H56           -9.9051     2.0083    -1.4514 H       
  57 H57           -8.3296     1.4080     0.3427 H       
@<TRIPOS>BOND
   1    1    2 am
   2    1   10 1
   3    1    6 1
   4    2    3 1
   5    2    7 2
   6    3    4 2
   7    3    8 1
   8    4    5 1
   9    4   11 1
  10    5    6 2
  11    5   36 1
  12    6   37 1
  13    8    9 3
  14   10   12 1
  15   10   38 1
  16   10   39 1
  17   11   13 1
  18   11   17 1
  19   12   19 ar
  20   12   23 ar
  21   13   14 1
  22   13   40 1
  23   13   41 1
  24   14   15 1
  25   14   42 1
  26   14   43 1
  27   15   16 1
  28   15   18 1
  29   16   17 1
  30   16   44 1
  31   16   45 1
  32   17   46 1
  33   17   47 1
  34   18   24 1
  35   18   48 1
  36   18   49 1
  37   19   20 ar
  38   19   50 1
  39   20   21 ar
  40   20   51 1
  41   21   22 ar
  42   21   31 1
  43   22   23 ar
  44   22   52 1
  45   23   53 1
  46   24   25 ar
  47   24   29 ar
  48   25   26 ar
  49   25   54 1
  50   26   27 ar
  51   26   55 1
  52   27   28 ar
  53   27   30 1
  54   28   29 ar
  55   28   56 1
  56   29   57 1
  57   31   32 1
  58   32   33 1
  59   32   34 1
  60   32   35 1

#	End of record

