#	Name: ASD01883540
#	Creating user name:	WinNT
#	Creation time:	15. 06. 2019 19:46

#	Modifying user name:	WinNT
#	Modification time:	15. 06. 2019 19:46

#	Program:	/corina/corina34_cracker 3.40 0067  02.08.2006

@<TRIPOS>MOLECULE
ASD01883540
  60   64    0    0    0
SMALL
NO_CHARGES


@<TRIPOS>ATOM
   1 C1            -0.0171     1.4071     0.0098 C.2     
   2 C2            -0.8717     1.4205    -1.1132 C.2     
   3 C3            -2.0207     0.7137    -1.0894 C.2     
   4 N4            -2.3701    -0.0149     0.0042 N.am    
   5 C5            -1.5828    -0.0533     1.0951 C.2     
   6 C6            -0.3781     0.6573     1.1179 C.2     
   7 O7            -1.9184    -0.7148     2.0656 O.2     
   8 N8             1.1653     2.1265     0.0024 N.pl3   
   9 C9             1.1493     3.5921    -0.0998 C.3     
  10 C10            2.0460     4.0148    -1.2677 C.3     
  11 C11            3.4404     3.4132    -1.0786 C.3     
  12 C12            3.3425     1.8859    -1.0731 C.3     
  13 C13            2.4602     1.4395     0.1026 C.3     
  14 C14           -3.6252    -0.7704    -0.0048 C.3     
  15 C15            4.3351     3.8548    -2.2081 C.ar    
  16 C16            5.4825     4.5775    -1.9371 C.ar    
  17 C17            6.3046     4.9837    -2.9697 C.ar    
  18 C18            5.9778     4.6656    -4.2818 C.ar    
  19 C19            4.8244     3.9395    -4.5505 C.ar    
  20 C20            4.0097     3.5315    -3.5127 C.ar    
  21 C21           -3.3696    -2.1774    -0.5488 C.3     
  22 Cl22           0.6432     0.6129     2.5210 Cl      
  23 C23           -4.5377    -3.1654    -0.5293 C.3     
  24 C24           -4.0642    -2.5667    -1.8553 C.3     
  25 N25            6.8068     5.0753    -5.3287 N.3     
  26 C26            6.2746     4.6334    -6.6259 C.3     
  27 C27            7.1792     5.1533    -7.7463 C.3     
  28 O28            8.5156     4.6947    -7.5248 O.3     
  29 C29            9.0654     5.1074    -6.2707 C.3     
  30 C30            8.1799     4.5870    -5.1354 C.3     
  31 H31           -0.6070     1.9951    -1.9886 H       
  32 H32           -2.6721     0.7270    -1.9508 H       
  33 H33            0.1301     3.9347    -0.2790 H       
  34 H34            1.5257     4.0271     0.8260 H       
  35 H35            1.6184     3.6550    -2.2035 H       
  36 H36            2.1195     5.1020    -1.2950 H       
  37 H37            3.8574     3.7538    -0.1309 H       
  38 H38            2.9026     1.5462    -2.0107 H       
  39 H39            4.3387     1.4579    -0.9618 H       
  40 H40            2.9459     1.6993     1.0432 H       
  41 H41            2.3053     0.3616     0.0546 H       
  42 H42           -4.0155    -0.8388     1.0106 H       
  43 H43           -4.3509    -0.2618    -0.6395 H       
  44 H44            5.7358     4.8248    -0.9168 H       
  45 H45            7.2004     5.5484    -2.7574 H       
  46 H46            4.5675     3.6905    -5.5695 H       
  47 H47            3.1131     2.9666    -3.7208 H       
  48 H48           -2.3706    -2.5757    -0.3715 H       
  49 H49           -4.3071    -4.2137    -0.3395 H       
  50 H50           -5.4882    -2.8130    -0.1289 H       
  51 H51           -4.7033    -1.8205    -2.3273 H       
  52 H52           -3.5221    -3.2211    -2.5379 H       
  53 H53            6.2471     3.5442    -6.6562 H       
  54 H54            5.2670     5.0274    -6.7593 H       
  55 H55            6.8209     4.7807    -8.7059 H       
  56 H56            7.1643     6.2432    -7.7499 H       
  57 H57           10.0712     4.7015    -6.1631 H       
  58 H58            9.1054     6.1959    -6.2314 H       
  59 H59            8.5632     4.9471    -4.1806 H       
  60 H60            8.1829     3.4970    -5.1418 H       
@<TRIPOS>BOND
   1    1    2 1
   2    1    8 1
   3    1    6 2
   4    2    3 2
   5    2   31 1
   6    3    4 1
   7    3   32 1
   8    4    5 am
   9    4   14 1
  10    5    6 1
  11    5    7 2
  12    6   22 1
  13    8    9 1
  14    8   13 1
  15    9   10 1
  16    9   33 1
  17    9   34 1
  18   10   11 1
  19   10   35 1
  20   10   36 1
  21   11   12 1
  22   11   15 1
  23   11   37 1
  24   12   13 1
  25   12   38 1
  26   12   39 1
  27   13   40 1
  28   13   41 1
  29   14   21 1
  30   14   42 1
  31   14   43 1
  32   15   16 ar
  33   15   20 ar
  34   16   17 ar
  35   16   44 1
  36   17   18 ar
  37   17   45 1
  38   18   19 ar
  39   18   25 1
  40   19   20 ar
  41   19   46 1
  42   20   47 1
  43   21   23 1
  44   21   24 1
  45   21   48 1
  46   23   24 1
  47   23   49 1
  48   23   50 1
  49   24   51 1
  50   24   52 1
  51   25   26 1
  52   25   30 1
  53   26   27 1
  54   26   53 1
  55   26   54 1
  56   27   28 1
  57   27   55 1
  58   27   56 1
  59   28   29 1
  60   29   30 1
  61   29   57 1
  62   29   58 1
  63   30   59 1
  64   30   60 1

#	End of record

