#	Name: ASD02500251
#	Creating user name:	WinNT
#	Creation time:	15. 06. 2019 20:22

#	Modifying user name:	WinNT
#	Modification time:	15. 06. 2019 20:22

#	Program:	/corina/corina34_cracker 3.40 0067  02.08.2006

@<TRIPOS>MOLECULE
ASD02500251
  68   72    0    0    0
SMALL
NO_CHARGES


@<TRIPOS>ATOM
   1 N1            -3.3200     5.4864     0.4454 N.ar    
   2 C2            -4.4957     6.0462     0.5960 C.ar    
   3 C3            -5.3311     5.7216     1.6628 C.ar    
   4 C4            -4.9308     4.7976     2.5854 C.ar    
   5 C5            -3.6677     4.1982     2.4202 C.ar    
   6 C6            -3.1885     3.2406     3.3281 C.ar    
   7 C7            -1.9610     2.6841     3.1337 C.ar    
   8 C8            -1.1733     3.0527     2.0454 C.ar    
   9 C9            -1.6067     3.9777     1.1459 C.ar    
  10 C10           -2.8682     4.5747     1.3124 C.ar    
  11 S11           -0.5897     4.4259    -0.2214 S.o2    
  12 O12           -0.5775     5.8462    -0.2638 O.2     
  13 O13            0.5905     3.6412    -0.1179 O.2     
  14 N14           -1.3662     3.9237    -1.5952 N.am    
  15 C15           -1.5670     2.5668    -1.8239 C.ar    
  16 C16           -2.8107     2.1124    -2.2457 C.ar    
  17 C17           -3.0105     0.7625    -2.4737 C.ar    
  18 C18           -1.9526    -0.1394    -2.2765 C.ar    
  19 C19           -0.7069     0.3337    -1.8517 C.ar    
  20 C20           -0.5189     1.6683    -1.6347 C.ar    
  21 O21           -4.2224     0.3125    -2.8852 O.3     
  22 C22           -5.2505     1.2888    -3.0638 C.3     
  23 C23           -2.1541    -1.5781    -2.5155 C.2     
  24 O24           -3.0541    -2.1685    -1.9492 O.2     
  25 N25           -1.3412    -2.2409    -3.3619 N.am    
  26 C26           -1.5872    -3.6539    -3.6827 C.3     
  27 C27           -1.6955    -3.7990    -5.2057 C.3     
  28 N28           -0.5476    -3.1216    -5.8248 N.am    
  29 C29           -0.3016    -1.7086    -5.5040 C.3     
  30 C30           -0.1966    -1.5619    -3.9854 C.3     
  31 C31            0.2653    -3.7844    -6.6712 C.2     
  32 C32            1.3530    -3.0656    -7.3654 C.ar    
  33 C33            2.6640    -3.5450    -7.3005 C.ar    
  34 C34            3.6794    -2.8630    -7.9559 C.ar    
  35 C35            3.3916    -1.7105    -8.6711 C.ar    
  36 C36            2.0938    -1.2350    -8.7354 C.ar    
  37 C37            1.0747    -1.9071    -8.0942 C.ar    
  38 O38            0.1032    -4.9738    -6.8633 O.2     
  39 O39            4.9569    -3.3247    -7.8963 O.3     
  40 C40            5.9517    -2.5730    -8.5943 C.3     
  41 F41            2.9418    -4.6677    -6.6022 F       
  42 H42           -4.8255     6.7787    -0.1259 H       
  43 H43           -6.2942     6.2006     1.7603 H       
  44 H44           -5.5654     4.5343     3.4187 H       
  45 H45           -3.7897     2.9473     4.1760 H       
  46 H46           -1.5931     1.9475     3.8327 H       
  47 H47           -0.2029     2.5973     1.9134 H       
  48 H48           -1.6809     4.5761    -2.2404 H       
  49 H49           -3.6200     2.8117    -2.3950 H       
  50 H50            0.1087    -0.3575    -1.6988 H       
  51 H51            0.4460     2.0291    -1.3107 H       
  52 H52           -6.1655     0.7968    -3.3936 H       
  53 H53           -5.4335     1.8008    -2.1191 H       
  54 H54           -4.9367     2.0136    -3.8150 H       
  55 H55           -0.7604    -4.2617    -3.3152 H       
  56 H56           -2.5180    -3.9780    -3.2173 H       
  57 H57           -1.6852    -4.8554    -5.4742 H       
  58 H58           -2.6215    -3.3400    -5.5520 H       
  59 H59            0.6292    -1.3845    -5.9695 H       
  60 H60           -1.1284    -1.1008    -5.8715 H       
  61 H61           -0.2092    -0.5049    -3.7197 H       
  62 H62            0.7314    -2.0174    -3.6399 H       
  63 H63            4.1839    -1.1815    -9.1799 H       
  64 H64            1.8774    -0.3362    -9.2939 H       
  65 H65            0.0624    -1.5351    -8.1515 H       
  66 H66            5.7024    -2.5372    -9.6548 H       
  67 H67            5.9877    -1.5593    -8.1952 H       
  68 H68            6.9238    -3.0490    -8.4655 H       
@<TRIPOS>BOND
   1    1    2 ar
   2    1   10 ar
   3    2    3 ar
   4    2   42 1
   5    3    4 ar
   6    3   43 1
   7    4    5 ar
   8    4   44 1
   9    5    6 ar
  10    5   10 ar
  11    6    7 ar
  12    6   45 1
  13    7    8 ar
  14    7   46 1
  15    8    9 ar
  16    8   47 1
  17    9   10 ar
  18    9   11 1
  19   11   12 2
  20   11   13 2
  21   11   14 am
  22   14   15 1
  23   14   48 1
  24   15   16 ar
  25   15   20 ar
  26   16   17 ar
  27   16   49 1
  28   17   18 ar
  29   17   21 1
  30   18   19 ar
  31   18   23 1
  32   19   20 ar
  33   19   50 1
  34   20   51 1
  35   21   22 1
  36   22   52 1
  37   22   53 1
  38   22   54 1
  39   23   24 2
  40   23   25 am
  41   25   26 1
  42   25   30 1
  43   26   27 1
  44   26   55 1
  45   26   56 1
  46   27   28 1
  47   27   57 1
  48   27   58 1
  49   28   29 1
  50   28   31 am
  51   29   30 1
  52   29   59 1
  53   29   60 1
  54   30   61 1
  55   30   62 1
  56   31   32 1
  57   31   38 2
  58   32   33 ar
  59   32   37 ar
  60   33   34 ar
  61   33   41 1
  62   34   35 ar
  63   34   39 1
  64   35   36 ar
  65   35   63 1
  66   36   37 ar
  67   36   64 1
  68   37   65 1
  69   39   40 1
  70   40   66 1
  71   40   67 1
  72   40   68 1

#	End of record

