#	Name: ASD04230178
#	Creating user name:	WinNT
#	Creation time:	15. 06. 2019 20:48

#	Modifying user name:	WinNT
#	Modification time:	15. 06. 2019 20:48

#	Program:	/corina/corina34_cracker 3.40 0067  02.08.2006

@<TRIPOS>MOLECULE
ASD04230178
  43   46    0    0    0
SMALL
NO_CHARGES


@<TRIPOS>ATOM
   1 C1             0.0768     1.3670     0.8454 C.2     
   2 C2             0.0736    -0.0864     0.6255 C.ar    
   3 C3            -1.1595    -0.7680     0.5515 C.ar    
   4 C4            -2.3839    -0.0736     0.6850 C.ar    
   5 C5            -2.3981     1.3252     0.8967 C.2     
   6 C6            -1.2127     2.0538     0.9856 C.2     
   7 C7             1.2667    -0.7964     0.4904 C.ar    
   8 C8             1.2447    -2.1636     0.2839 C.ar    
   9 C9             0.0485    -2.8496     0.2083 C.ar    
  10 C10           -1.1635    -2.1656     0.3400 C.ar    
  11 C11           -2.4441    -2.8658     0.2646 C.ar    
  12 C12           -3.6252    -2.1358     0.4031 C.ar    
  13 C13           -3.5975    -0.7792     0.6064 C.ar    
  14 O14            1.1252     1.9862     0.9147 O.2     
  15 S15           -2.4958    -4.6074     0.0019 S.3     
  16 C16           -4.2269    -4.8906     0.1687 C.ar    
  17 C17           -5.0442    -4.8911    -0.9555 C.ar    
  18 C18           -6.4003    -5.1134    -0.8210 C.ar    
  19 C19           -6.9456    -5.3354     0.4306 C.ar    
  20 C20           -6.1354    -5.3352     1.5516 C.ar    
  21 C21           -4.7776    -5.1198     1.4242 C.ar    
  22 C22           -1.2535     3.4691     1.2002 C.1     
  23 N23           -1.2858     4.5918     1.3704 N.1     
  24 C24           -3.6939     2.0264     1.0321 C.2     
  25 O25           -4.2020     2.1571     2.1272 O.2     
  26 O26           -4.3100     2.5199    -0.0595 O.3     
  27 C27           -5.5782     3.1957     0.1483 C.3     
  28 C28           -6.1221     3.6840    -1.1958 C.3     
  29 H29            2.2115    -0.2761     0.5469 H       
  30 H30            2.1752    -2.7020     0.1802 H       
  31 H31            0.0494    -3.9174     0.0466 H       
  32 H32           -4.5755    -2.6461     0.3482 H       
  33 H33           -4.5285    -0.2417     0.7100 H       
  34 H34           -4.6192    -4.7175    -1.9331 H       
  35 H35           -7.0361    -5.1136    -1.6940 H       
  36 H36           -8.0066    -5.5090     0.5328 H       
  37 H37           -6.5647    -5.5086     2.5274 H       
  38 H38           -4.1455    -5.1201     2.2999 H       
  39 H39           -6.2896     2.5032     0.5981 H       
  40 H40           -5.4313     4.0478     0.8120 H       
  41 H41           -5.4107     4.3766    -1.6457 H       
  42 H42           -6.2690     2.8320    -1.8595 H       
  43 H43           -7.0741     4.1914    -1.0399 H       
@<TRIPOS>BOND
   1    1    2 1
   2    1   14 2
   3    1    6 1
   4    2    3 ar
   5    2    7 ar
   6    3    4 ar
   7    3   10 ar
   8    4    5 1
   9    4   13 ar
  10    5    6 2
  11    5   24 1
  12    6   22 1
  13    7    8 ar
  14    7   29 1
  15    8    9 ar
  16    8   30 1
  17    9   10 ar
  18    9   31 1
  19   10   11 ar
  20   11   12 ar
  21   11   15 1
  22   12   13 ar
  23   12   32 1
  24   13   33 1
  25   15   16 1
  26   16   17 ar
  27   16   21 ar
  28   17   18 ar
  29   17   34 1
  30   18   19 ar
  31   18   35 1
  32   19   20 ar
  33   19   36 1
  34   20   21 ar
  35   20   37 1
  36   21   38 1
  37   22   23 3
  38   24   25 2
  39   24   26 1
  40   26   27 1
  41   27   28 1
  42   27   39 1
  43   27   40 1
  44   28   41 1
  45   28   42 1
  46   28   43 1

#	End of record

