#	Name: ASD01885828
#	Creating user name:	WinNT
#	Creation time:	15. 06. 2019 19:50

#	Modifying user name:	WinNT
#	Modification time:	15. 06. 2019 19:50

#	Program:	/corina/corina34_cracker 3.40 0067  02.08.2006

@<TRIPOS>MOLECULE
ASD01885828
  51   54    0    0    0
SMALL
NO_CHARGES


@<TRIPOS>ATOM
   1 C1            -0.0165     1.3269     0.0720 C.ar    
   2 C2            -1.2526     2.0220     0.0843 C.ar    
   3 C3            -2.4608     1.2803     0.0210 C.ar    
   4 C4            -2.3700    -0.1044    -0.0506 C.ar    
   5 C5            -1.1093    -0.7126    -0.0577 C.ar    
   6 N6             0.0021    -0.0041     0.0015 N.ar    
   7 C7             1.1356     3.4225     0.2006 C.ar    
   8 C8            -0.0816     4.1002     0.2185 C.ar    
   9 C9            -1.2614     3.4202     0.1586 C.ar    
  10 C10           -3.7725     1.9583     0.0312 C.2     
  11 C11           -1.0206    -2.1908    -0.1342 C.2     
  12 C12            2.4214     4.2055     0.2693 C.3     
  13 N13            2.8145     4.3791     1.6740 N.3     
  14 C14            1.1817     2.0645     0.1295 C.ar    
  15 N15            0.1846    -2.7940    -0.1427 N.am    
  16 O16           -2.0344    -2.8582    -0.1893 O.2     
  17 C17            4.1750     4.9266     1.7765 C.3     
  18 C18            4.5208     5.1470     3.2515 C.3     
  19 O19            4.3795     3.9121     3.9588 O.3     
  20 C20            3.0664     3.3508     3.8806 C.3     
  21 C21            2.7058     3.1122     2.4119 C.3     
  22 N22           -4.1734     2.9205     0.8402 N.2     
  23 C23           -5.3877     3.3731     0.6630 C.2     
  24 N24           -6.1034     2.8443    -0.2906 N.2     
  25 S25           -5.1107     1.6705    -1.0155 S.3     
  26 C26            3.0330     2.0215     4.6373 C.3     
  27 C27            5.9640     5.6411     3.3696 C.3     
  28 F28            6.1027     6.8466     2.6734 F       
  29 F29            6.2792     5.8423     4.7177 F       
  30 F30            6.8298     4.6862     2.8257 F       
  31 C31           -5.9445     4.4672     1.5371 C.3     
  32 H32           -3.2651    -0.7067    -0.0999 H       
  33 H33           -0.0904     5.1784     0.2810 H       
  34 H34           -2.1984     3.9572     0.1681 H       
  35 H35            3.2044     3.6656    -0.2631 H       
  36 H36            2.2766     5.1829    -0.1910 H       
  37 H37            2.1335     1.5542     0.1175 H       
  38 H38            0.9940    -2.2612    -0.0987 H       
  39 H39            0.2426    -3.7610    -0.1928 H       
  40 H40            4.8839     4.2246     1.3374 H       
  41 H41            4.2260     5.8768     1.2448 H       
  42 H42            3.8454     5.8893     3.6767 H       
  43 H43            2.3486     4.0409     4.3241 H       
  44 H44            1.6844     2.7380     2.3441 H       
  45 H45            3.3912     2.3812     1.9830 H       
  46 H46            3.2936     2.1915     5.6820 H       
  47 H47            2.0320     1.5943     4.5774 H       
  48 H48            3.7498     1.3317     4.1917 H       
  49 H49           -6.4336     4.0251     2.4051 H       
  50 H50           -5.1335     5.1158     1.8682 H       
  51 H51           -6.6690     5.0518     0.9703 H       
@<TRIPOS>BOND
   1    1    6 ar
   2    1   14 ar
   3    1    2 ar
   4    2    3 ar
   5    2    9 ar
   6    3   10 1
   7    3    4 ar
   8    4    5 ar
   9    4   32 1
  10    5   11 1
  11    5    6 ar
  12    7   12 1
  13    7    8 ar
  14    7   14 ar
  15    8    9 ar
  16    8   33 1
  17    9   34 1
  18   10   22 2
  19   10   25 1
  20   11   15 am
  21   11   16 2
  22   12   13 1
  23   12   35 1
  24   12   36 1
  25   13   17 1
  26   13   21 1
  27   14   37 1
  28   15   38 1
  29   15   39 1
  30   17   18 1
  31   17   40 1
  32   17   41 1
  33   18   19 1
  34   18   27 1
  35   18   42 1
  36   19   20 1
  37   20   21 1
  38   20   26 1
  39   20   43 1
  40   21   44 1
  41   21   45 1
  42   22   23 1
  43   23   24 2
  44   23   31 1
  45   24   25 1
  46   26   46 1
  47   26   47 1
  48   26   48 1
  49   27   28 1
  50   27   29 1
  51   27   30 1
  52   31   49 1
  53   31   50 1
  54   31   51 1

#	End of record

