#	Name: ASD01910296
#	Creating user name:	WinNT
#	Creation time:	15. 06. 2019 19:55

#	Modifying user name:	WinNT
#	Modification time:	15. 06. 2019 19:55

#	Program:	/corina/corina34_cracker 3.40 0067  02.08.2006

@<TRIPOS>MOLECULE
ASD01910296
  47   50    0    0    0
SMALL
NO_CHARGES


@<TRIPOS>ATOM
   1 C1            -0.2784     0.1869     0.3118 C.ar    
   2 C2            -0.4107    -1.1879     0.2415 C.ar    
   3 C3            -1.6666    -1.7643     0.1751 C.ar    
   4 C4            -2.7945    -0.9693     0.1787 C.ar    
   5 C5            -2.6669     0.4163     0.2494 C.ar    
   6 C6            -1.4003     0.9912     0.3214 C.ar    
   7 C7            -3.8768     1.2767     0.2531 C.2     
   8 N8            -5.1301     0.8728     0.1946 N.2     
   9 N9            -5.8830     1.9184     0.2214 N.pl3   
  10 N10           -5.1466     2.9717     0.2951 N.2     
  11 N11           -3.9073     2.6150     0.3224 N.2     
  12 C12           -7.3472     1.9097     0.1746 C.3     
  13 C13           -7.9027     2.5667     1.4403 C.3     
  14 C14           -9.4322     2.5288     1.4076 C.3     
  15 C15           -9.9328     3.3179     0.1938 C.3     
  16 N16           -9.2900     2.7844    -1.0149 N.am    
  17 C17           -7.8242     2.6919    -1.0532 C.3     
  18 C18          -10.0309     2.3875    -2.0685 C.2     
  19 C19           -9.3693     1.9757    -3.3235 C.ar    
  20 O20          -11.2436     2.3685    -1.9860 O.2     
  21 C21           -9.8317     0.8609    -4.0262 C.ar    
  22 C22           -9.2110     0.4813    -5.1969 C.ar    
  23 C23           -8.1294     1.2040    -5.6770 C.ar    
  24 C24           -7.6661     2.3113    -4.9830 C.ar    
  25 C25           -8.2830     2.7031    -3.8143 C.ar    
  26 F26           -7.5247     0.8276    -6.8250 F       
  27 C27            1.0929     0.8077     0.3844 C.3     
  28 H28            0.4694    -1.8137     0.2381 H       
  29 H29           -1.7644    -2.8385     0.1200 H       
  30 H30           -3.7745    -1.4203     0.1265 H       
  31 H31           -1.2958     2.0647     0.3767 H       
  32 H32           -7.7032     0.8814     0.1123 H       
  33 H33           -7.5447     2.0266     2.3168 H       
  34 H34           -7.5661     3.6023     1.4896 H       
  35 H35           -9.7690     1.4948     1.3334 H       
  36 H36           -9.8268     2.9758     2.3201 H       
  37 H37          -11.0144     3.2118     0.1096 H       
  38 H38           -9.6749     4.3705     0.3106 H       
  39 H39           -7.3943     3.6934    -1.0382 H       
  40 H40           -7.5144     2.1727    -1.9602 H       
  41 H41          -10.6738     0.2971    -3.6529 H       
  42 H42           -9.5675    -0.3808    -5.7410 H       
  43 H43           -6.8231     2.8705    -5.3612 H       
  44 H44           -7.9215     3.5659    -3.2747 H       
  45 H45            1.4554     1.0068    -0.6241 H       
  46 H46            1.0394     1.7425     0.9424 H       
  47 H47            1.7756     0.1229     0.8874 H       
@<TRIPOS>BOND
   1    1    2 ar
   2    1   27 1
   3    1    6 ar
   4    2    3 ar
   5    2   28 1
   6    3    4 ar
   7    3   29 1
   8    4    5 ar
   9    4   30 1
  10    5    6 ar
  11    5    7 1
  12    6   31 1
  13    7    8 2
  14    7   11 1
  15    8    9 1
  16    9   10 1
  17    9   12 1
  18   10   11 2
  19   12   13 1
  20   12   17 1
  21   12   32 1
  22   13   14 1
  23   13   33 1
  24   13   34 1
  25   14   15 1
  26   14   35 1
  27   14   36 1
  28   15   16 1
  29   15   37 1
  30   15   38 1
  31   16   17 1
  32   16   18 am
  33   17   39 1
  34   17   40 1
  35   18   19 1
  36   18   20 2
  37   19   21 ar
  38   19   25 ar
  39   21   22 ar
  40   21   41 1
  41   22   23 ar
  42   22   42 1
  43   23   24 ar
  44   23   26 1
  45   24   25 ar
  46   24   43 1
  47   25   44 1
  48   27   45 1
  49   27   46 1
  50   27   47 1

#	End of record

