#	Name: ASD09080098
#	Creating user name:	WinNT
#	Creation time:	15. 06. 2019 21:20

#	Modifying user name:	WinNT
#	Modification time:	15. 06. 2019 21:20

#	Program:	/corina/corina34_cracker 3.40 0067  02.08.2006

@<TRIPOS>MOLECULE
ASD09080098
  48   49    0    0    0
SMALL
NO_CHARGES


@<TRIPOS>ATOM
   1 C1            -0.0167     1.3772     0.0096 C.ar    
   2 C2             0.0021    -0.0041     0.0020 C.ar    
   3 C3            -1.1962    -0.7147     0.0101 C.ar    
   4 C4            -2.4082    -0.0278     0.0258 C.ar    
   5 C5            -2.4165     1.3536     0.0333 C.ar    
   6 C6            -1.2232     2.0552     0.0306 C.ar    
   7 Cl7            1.4756     2.2642     0.0001 Cl      
   8 Cl8           -3.9258     2.2111     0.0523 Cl      
   9 C9            -1.1817    -2.1986     0.0015 C.ar    
  10 C10           -2.3731    -2.9282     0.0094 C.ar    
  11 C11            0.0236    -2.9046    -0.0206 C.ar    
  12 N12           -0.0087    -4.2261    -0.0280 N.ar    
  13 C13           -1.1555    -4.8762    -0.0149 C.ar    
  14 N14           -2.3149    -4.2488     0.0008 N.ar    
  15 C15           -1.1408    -6.3831    -0.0242 C.3     
  16 C16           -1.1144    -6.9017     1.4150 C.3     
  17 C17           -1.2252    -8.4276     1.4094 C.3     
  18 N18            0.1431    -6.5057     2.0538 N.am    
  19 C19           -1.1988    -8.9462     2.8485 C.3     
  20 O20           -2.4518    -8.8139     0.7863 O.3     
  21 C21           -1.4308   -10.4353     2.8503 C.2     
  22 O22           -0.5318   -11.2553     2.2837 O.3     
  23 O23           -2.4262   -10.8910     3.3616 O.2     
  24 C24            0.2095    -6.3864     3.3946 C.2     
  25 C25            1.5031    -5.9791     4.0517 C.3     
  26 O26           -0.7718    -6.6069     4.0724 O.2     
  27 O27            1.3210    -5.9230     5.4679 O.3     
  28 C28            2.4943    -5.5440     6.1903 C.3     
  29 O29           -2.2262    -8.3032     3.6055 O.3     
  30 H30            0.9441    -0.5322    -0.0105 H       
  31 H31           -3.3397    -0.5743     0.0318 H       
  32 H32           -1.2338     3.1351     0.0365 H       
  33 H33           -3.3266    -2.4212     0.0227 H       
  34 H34            0.9670    -2.3789    -0.0318 H       
  35 H35           -2.0347    -6.7521    -0.5270 H       
  36 H36           -0.2550    -6.7345    -0.5533 H       
  37 H37           -1.9523    -6.4786     1.9691 H       
  38 H38           -0.3873    -8.8507     0.8553 H       
  39 H39            0.9280    -6.3293     1.5117 H       
  40 H40           -0.2285    -8.7292     3.2952 H       
  41 H41           -3.2416    -8.4721     1.2273 H       
  42 H42           -0.7241   -12.2026     2.3095 H       
  43 H43            2.2771    -6.7087     3.8136 H       
  44 H44            1.8037    -4.9977     3.6849 H       
  45 H45            2.2735    -5.5248     7.2575 H       
  46 H46            3.2888    -6.2646     5.9965 H       
  47 H47            2.8155    -4.5536     5.8678 H       
  48 H48           -3.1185    -8.4533     3.2644 H       
@<TRIPOS>BOND
   1    1    2 ar
   2    1    7 1
   3    1    6 ar
   4    2    3 ar
   5    2   30 1
   6    3    4 ar
   7    3    9 1
   8    4    5 ar
   9    4   31 1
  10    5    6 ar
  11    5    8 1
  12    6   32 1
  13    9   10 ar
  14    9   11 ar
  15   10   14 ar
  16   10   33 1
  17   11   12 ar
  18   11   34 1
  19   12   13 ar
  20   13   14 ar
  21   13   15 1
  22   15   16 1
  23   15   35 1
  24   15   36 1
  25   16   17 1
  26   16   18 1
  27   16   37 1
  28   17   19 1
  29   17   20 1
  30   17   38 1
  31   18   24 am
  32   18   39 1
  33   19   21 1
  34   19   29 1
  35   19   40 1
  36   20   41 1
  37   21   22 1
  38   21   23 2
  39   22   42 1
  40   24   25 1
  41   24   26 2
  42   25   27 1
  43   25   43 1
  44   25   44 1
  45   27   28 1
  46   28   45 1
  47   28   46 1
  48   28   47 1
  49   29   48 1

#	End of record

