#	Name: ASD01811589
#	Creating user name:	WinNT
#	Creation time:	15. 06. 2019 19:27

#	Modifying user name:	WinNT
#	Modification time:	15. 06. 2019 19:27

#	Program:	/corina/corina34_cracker 3.40 0067  02.08.2006

@<TRIPOS>MOLECULE
ASD01811589
  67   71    0    0    0
SMALL
NO_CHARGES


@<TRIPOS>ATOM
   1 C1            -7.6535     2.4749    -4.1276 C.1     
   2 C2            -6.6436     3.2270    -3.4456 C.ar    
   3 C3            -5.4796     2.5965    -3.0013 C.ar    
   4 C4            -4.5109     3.3270    -2.3450 C.ar    
   5 C5            -4.6907     4.6813    -2.1263 C.ar    
   6 C6            -5.8418     5.3124    -2.5635 C.ar    
   7 C7            -6.8157     4.5953    -3.2271 C.ar    
   8 N8            -8.4546     1.8783    -4.6686 N.1     
   9 N9            -2.5314     7.8382    -0.3119 N.am    
  10 C10           -2.0121     7.3675    -1.6033 C.3     
  11 C11           -3.1161     6.5870    -2.3236 C.3     
  12 C12           -3.6281     5.4727    -1.4081 C.3     
  13 C13           -4.2207     6.0860    -0.1374 C.3     
  14 C14           -3.1292     6.8608     0.6078 C.3     
  15 C15           -2.4556     9.1410     0.0249 C.2     
  16 C16           -3.0587     9.6140     1.2894 C.ar    
  17 C17           -3.9984    10.6473     1.2733 C.ar    
  18 C18           -4.5623    11.0899     2.4531 C.ar    
  19 C19           -4.2019    10.5152     3.6561 C.ar    
  20 C20           -3.2638     9.4816     3.6864 C.ar    
  21 C21           -2.6951     9.0262     2.4990 C.ar    
  22 O22           -1.8916     9.9272    -0.7108 O.2     
  23 C23           -4.8223    11.0052     4.9391 C.3     
  24 C24           -4.3973    11.2807    -0.0347 C.3     
  25 C25           -0.9872     6.6577     7.2096 C.3     
  26 C26           -1.8767     7.6355     6.4827 C.2     
  27 C27           -2.8213     8.3947     7.0837 C.2     
  28 C28           -3.1119     8.3762     8.5643 C.3     
  29 C29           -2.5247     7.0947     9.1682 C.3     
  30 N30           -1.1610     6.8990     8.6537 N.am    
  31 C31           -2.8788     8.8677     4.9760 C.2     
  32 N32           -1.9022     7.9283     5.1543 N.pl3   
  33 N33           -3.4185     9.1332     6.1469 N.2     
  34 C34           -0.0976     6.9387     9.4809 C.2     
  35 O35           -0.2586     7.1383    10.6663 O.2     
  36 C36            1.2913     6.7351     8.9328 C.3     
  37 H37           -5.3384     1.5392    -3.1707 H       
  38 H38           -3.6101     2.8406    -2.0007 H       
  39 H39           -5.9759     6.3698    -2.3892 H       
  40 H40           -7.7115     5.0901    -3.5721 H       
  41 H41           -1.7131     8.2220    -2.2103 H       
  42 H42           -1.1538     6.7167    -1.4366 H       
  43 H43           -3.9365     7.2610    -2.5702 H       
  44 H44           -2.7155     6.1508    -3.2387 H       
  45 H45           -2.8021     4.8133    -1.1417 H       
  46 H46           -5.0307     6.7647    -0.4045 H       
  47 H47           -4.6062     5.2932     0.5037 H       
  48 H48           -2.3619     6.1687     0.9548 H       
  49 H49           -3.5672     7.3810     1.4597 H       
  50 H50           -5.2882    11.8894     2.4353 H       
  51 H51           -1.9723     8.2239     2.5166 H       
  52 H52           -5.6674    10.3683     5.2004 H       
  53 H53           -4.0810    10.9710     5.7374 H       
  54 H54           -5.1673    12.0307     4.8074 H       
  55 H55           -5.1879    10.6905    -0.4980 H       
  56 H56           -4.7584    12.2929     0.1469 H       
  57 H57           -3.5339    11.3166    -0.6992 H       
  58 H58           -1.2811     5.6367     6.9660 H       
  59 H59            0.0530     6.8224     6.9285 H       
  60 H60           -2.6549     9.2454     9.0371 H       
  61 H61           -4.1898     8.3950     8.7251 H       
  62 H62           -2.4949     7.1843    10.2541 H       
  63 H63           -3.1451     6.2430     8.8891 H       
  64 H64           -1.3363     7.5444     4.4663 H       
  65 H65            1.7119     7.6977     8.6420 H       
  66 H66            1.9206     6.2798     9.6976 H       
  67 H67            1.2462     6.0804     8.0625 H       
@<TRIPOS>BOND
   1    1    2 1
   2    1    8 3
   3    2    3 ar
   4    2    7 ar
   5    3    4 ar
   6    3   37 1
   7    4    5 ar
   8    4   38 1
   9    5    6 ar
  10    5   12 1
  11    6    7 ar
  12    6   39 1
  13    7   40 1
  14    9   10 1
  15    9   14 1
  16    9   15 am
  17   10   11 1
  18   10   41 1
  19   10   42 1
  20   11   12 1
  21   11   43 1
  22   11   44 1
  23   12   13 1
  24   12   45 1
  25   13   14 1
  26   13   46 1
  27   13   47 1
  28   14   48 1
  29   14   49 1
  30   15   16 1
  31   15   22 2
  32   16   17 ar
  33   16   21 ar
  34   17   18 ar
  35   17   24 1
  36   18   19 ar
  37   18   50 1
  38   19   20 ar
  39   19   23 1
  40   20   21 ar
  41   20   31 1
  42   21   51 1
  43   23   52 1
  44   23   53 1
  45   23   54 1
  46   24   55 1
  47   24   56 1
  48   24   57 1
  49   25   26 1
  50   25   30 1
  51   25   58 1
  52   25   59 1
  53   26   27 2
  54   26   32 1
  55   27   28 1
  56   27   33 1
  57   28   29 1
  58   28   60 1
  59   28   61 1
  60   29   30 1
  61   29   62 1
  62   29   63 1
  63   30   34 am
  64   31   32 1
  65   31   33 2
  66   32   64 1
  67   34   35 2
  68   34   36 1
  69   36   65 1
  70   36   66 1
  71   36   67 1

#	End of record

