#	Name: ASD08830210
#	Creating user name:	WinNT
#	Creation time:	15. 06. 2019 21:20

#	Modifying user name:	WinNT
#	Modification time:	15. 06. 2019 21:20

#	Program:	/corina/corina34_cracker 3.40 0067  02.08.2006

@<TRIPOS>MOLECULE
ASD08830210
  55   57    0    0    0
SMALL
NO_CHARGES


@<TRIPOS>ATOM
   1 C1            -0.0179     1.4664     0.0101 C.ar    
   2 C2             0.0021    -0.0041     0.0020 C.2     
   3 C3            -1.2926    -0.7753     0.0102 C.3     
   4 C4            -0.9927    -2.2755    -0.0007 C.3     
   5 N5            -2.2547    -3.0273     0.0073 N.3     
   6 O6             1.0604    -0.5961    -0.0113 O.2     
   7 C7            -1.2501     2.1494     0.0314 C.ar    
   8 C8            -3.0815    -6.7265     0.1211 C.3     
   9 C9            -3.3402    -5.2225     0.0059 C.3     
  10 C10           -2.0053    -4.4749    -0.0028 C.3     
  11 C11            1.1775     2.1721     0.0025 C.ar    
  12 C12            1.1498     3.5742     0.0108 C.ar    
  13 C13           -0.0981     4.2488     0.0267 C.ar    
  14 C14           -1.2933     3.5050     0.0397 C.ar    
  15 C15            2.3394     4.3245     0.0039 C.ar    
  16 C16            2.2782     5.6844     0.0127 C.ar    
  17 C17            1.0525     6.3463     0.0288 C.ar    
  18 C18           -0.1197     5.6527     0.0354 C.ar    
  19 C19           -4.4207    -7.4691     0.1644 C.3     
  20 N20           -5.2145    -7.0815    -1.0096 N.am    
  21 C21           -5.4469    -5.6534    -1.2652 C.3     
  22 C22           -4.0962    -4.9312    -1.2924 C.3     
  23 C23           -5.7195    -8.0182    -1.8367 C.2     
  24 O24           -6.4451    -7.6488    -2.9090 O.3     
  25 O25           -5.5199    -9.1960    -1.6147 O.2     
  26 C26           -6.9576    -8.7111    -3.7559 C.3     
  27 C27           -7.7507    -8.1023    -4.9140 C.3     
  28 H28           -1.8592    -0.5245     0.9070 H       
  29 H29           -1.8762    -0.5150    -0.8728 H       
  30 H30           -0.4261    -2.5263    -0.8975 H       
  31 H31           -0.4091    -2.5358     0.8824 H       
  32 H32           -2.8271    -2.7645     0.7956 H       
  33 H33           -2.1718     1.5865     0.0409 H       
  34 H34           -2.5062    -7.0638    -0.7410 H       
  35 H35           -2.5226    -6.9306     1.0344 H       
  36 H36           -3.9368    -4.8905     0.8556 H       
  37 H37           -1.4458    -4.7409    -0.8996 H       
  38 H38           -1.4288    -4.7504     0.8802 H       
  39 H39            2.1206     1.6460    -0.0094 H       
  40 H40           -2.2455     4.0144     0.0515 H       
  41 H41            3.2965     3.8243    -0.0078 H       
  42 H42            3.1930     6.2583     0.0075 H       
  43 H43            1.0314     7.4261     0.0359 H       
  44 H44           -1.0619     6.1804     0.0479 H       
  45 H45           -4.2430    -8.5443     0.1466 H       
  46 H46           -4.9582    -7.2004     1.0738 H       
  47 H47           -5.9463    -5.5307    -2.2262 H       
  48 H48           -6.0681    -5.2367    -0.4724 H       
  49 H49           -4.2596    -3.8575    -1.3853 H       
  50 H50           -3.5113    -5.2854    -2.1413 H       
  51 H51           -6.1256    -9.2934    -4.1518 H       
  52 H52           -7.6092    -9.3599    -3.1707 H       
  53 H53           -8.5827    -7.5200    -4.5181 H       
  54 H54           -7.0991    -7.4535    -5.4992 H       
  55 H55           -8.1354    -8.8997    -5.5497 H       
@<TRIPOS>BOND
   1    1    2 1
   2    1   11 ar
   3    1    7 ar
   4    2    3 1
   5    2    6 2
   6    3    4 1
   7    3   28 1
   8    3   29 1
   9    4    5 1
  10    4   30 1
  11    4   31 1
  12    5   10 1
  13    5   32 1
  14    7   14 ar
  15    7   33 1
  16    8    9 1
  17    8   19 1
  18    8   34 1
  19    8   35 1
  20    9   10 1
  21    9   22 1
  22    9   36 1
  23   10   37 1
  24   10   38 1
  25   11   12 ar
  26   11   39 1
  27   12   13 ar
  28   12   15 ar
  29   13   14 ar
  30   13   18 ar
  31   14   40 1
  32   15   16 ar
  33   15   41 1
  34   16   17 ar
  35   16   42 1
  36   17   18 ar
  37   17   43 1
  38   18   44 1
  39   19   20 1
  40   19   45 1
  41   19   46 1
  42   20   21 1
  43   20   23 am
  44   21   22 1
  45   21   47 1
  46   21   48 1
  47   22   49 1
  48   22   50 1
  49   23   24 1
  50   23   25 2
  51   24   26 1
  52   26   27 1
  53   26   51 1
  54   26   52 1
  55   27   53 1
  56   27   54 1
  57   27   55 1

#	End of record

