#	Name: ASD01912601
#	Creating user name:	WinNT
#	Creation time:	15. 06. 2019 20:00

#	Modifying user name:	WinNT
#	Modification time:	15. 06. 2019 20:00

#	Program:	/corina/corina34_cracker 3.40 0067  02.08.2006

@<TRIPOS>MOLECULE
ASD01912601
  47   50    0    0    0
SMALL
NO_CHARGES


@<TRIPOS>ATOM
   1 C1            -0.0173     1.4278     0.0099 C.ar    
   2 C2             0.0021    -0.0041     0.0020 C.1     
   3 C3             0.0180    -1.1779    -0.0044 C.1     
   4 C4             0.0374    -2.6098    -0.0123 C.ar    
   5 C5            -1.1617    -3.3283    -0.0047 C.ar    
   6 C6             1.2548    -3.2950    -0.0335 C.ar    
   7 C7             1.2653    -4.6765    -0.0414 C.ar    
   8 C8             0.0719    -5.3809    -0.0289 C.ar    
   9 C9            -1.1366    -4.7070    -0.0128 C.ar    
  10 C10            1.1860     2.1436     0.0022 C.ar    
  11 C11            1.1646     3.5076     0.0090 C.ar    
  12 C12           -0.0579     4.1883     0.0091 C.ar    
  13 C13           -1.2584     3.4768     0.0244 C.ar    
  14 C14           -1.2388     2.1101     0.0194 C.ar    
  15 C15           -0.0549     5.6644    -0.0282 C.2     
  16 N16            1.0887     6.3167    -0.3093 N.am    
  17 O17           -1.0767     6.2854     0.1925 O.2     
  18 F18            2.4409    -5.3419    -0.0619 F       
  19 C19            2.4492     4.2940     0.0369 C.3     
  20 C20            2.2833     5.5959    -0.7428 C.3     
  21 C21            1.1361     7.7751    -0.1784 C.3     
  22 C22            1.5684     8.1460     1.2416 C.3     
  23 N23            1.6159     9.6083     1.3728 N.3     
  24 C24            1.7950    10.0071     2.7813 C.3     
  25 C25            2.7793    11.0798     2.2945 C.3     
  26 C26            2.9753    10.1183     1.1138 C.3     
  27 H27           -2.1061    -2.8045     0.0078 H       
  28 H28            2.1850    -2.7463    -0.0439 H       
  29 H29            0.0850    -6.4608    -0.0356 H       
  30 H30           -2.0627    -5.2625    -0.0028 H       
  31 H31            2.1289     1.6171    -0.0086 H       
  32 H32           -2.2004     4.0048     0.0364 H       
  33 H33           -2.1662     1.5568     0.0311 H       
  34 H34            2.7110     4.5223     1.0701 H       
  35 H35            3.2456     3.7017    -0.4136 H       
  36 H36            2.1983     5.3684    -1.8054 H       
  37 H37            3.1591     6.2242    -0.5810 H       
  38 H38            1.8515     8.1810    -0.8937 H       
  39 H39            0.1480     8.1900    -0.3775 H       
  40 H40            0.8530     7.7401     1.9568 H       
  41 H41            2.5564     7.7310     1.4407 H       
  42 H42            0.8930    10.4189     3.2340 H       
  43 H43            2.2612     9.2363     3.3949 H       
  44 H44            2.3108    12.0266     2.0260 H       
  45 H45            3.6602    11.1967     2.9258 H       
  46 H46            3.7565     9.3771     1.2825 H       
  47 H47            3.0736    10.6243     0.1535 H       
@<TRIPOS>BOND
   1    1    2 1
   2    1   10 ar
   3    1   14 ar
   4    2    3 3
   5    3    4 1
   6    4    5 ar
   7    4    6 ar
   8    5    9 ar
   9    5   27 1
  10    6    7 ar
  11    6   28 1
  12    7    8 ar
  13    7   18 1
  14    8    9 ar
  15    8   29 1
  16    9   30 1
  17   10   11 ar
  18   10   31 1
  19   11   12 ar
  20   11   19 1
  21   12   13 ar
  22   12   15 1
  23   13   14 ar
  24   13   32 1
  25   14   33 1
  26   15   16 am
  27   15   17 2
  28   16   21 1
  29   16   20 1
  30   19   20 1
  31   19   34 1
  32   19   35 1
  33   20   36 1
  34   20   37 1
  35   21   22 1
  36   21   38 1
  37   21   39 1
  38   22   23 1
  39   22   40 1
  40   22   41 1
  41   23   24 1
  42   23   26 1
  43   24   25 1
  44   24   42 1
  45   24   43 1
  46   25   26 1
  47   25   44 1
  48   25   45 1
  49   26   46 1
  50   26   47 1

#	End of record

