#	Name: ASD02198497
#	Creating user name:	WinNT
#	Creation time:	15. 06. 2019 20:19

#	Modifying user name:	WinNT
#	Modification time:	15. 06. 2019 20:19

#	Program:	/corina/corina34_cracker 3.40 0067  02.08.2006

@<TRIPOS>MOLECULE
ASD02198497
  43   45    0    0    0
SMALL
NO_CHARGES


@<TRIPOS>ATOM
   1 C1             0.1222     1.2961    -0.2876 C.2     
   2 C2             0.1718    -0.0491    -0.1196 C.2     
   3 N3             1.3480    -0.6764     0.1083 N.pl3   
   4 N4             2.4710    -0.0624     0.1802 N.2     
   5 C5             2.5650     1.2415     0.0357 C.2     
   6 C6             1.3391     2.0163    -0.2163 C.2     
   7 C7             1.3387    -2.0652     0.2745 C.ar    
   8 C8             0.1266    -4.1180     0.5352 C.ar    
   9 C9             1.3203    -4.8125     0.6041 C.ar    
  10 C10            2.5236    -4.1364     0.5138 C.ar    
  11 C11            2.5364    -2.7655     0.3493 C.ar    
  12 C12            3.8766     1.9160     0.1253 C.2     
  13 N13            5.0579     1.4607    -0.3819 N.pl3   
  14 N14            6.0468     2.4033    -0.0743 N.2     
  15 C15            5.4970     3.3883     0.5892 C.2     
  16 C16            4.1347     3.1256     0.7314 C.2     
  17 C17            5.2569     0.2088    -1.1163 C.3     
  18 C18            4.9291     0.4272    -2.5947 C.3     
  19 O19            1.3704     3.2295    -0.3584 O.2     
  20 C20            0.1322    -2.7467     0.3707 C.ar    
  21 C21            5.9300     1.4143    -3.1987 C.3     
  22 C22            5.0161    -0.9068    -3.3389 C.3     
  23 C23           -1.1819    -4.8590     0.6335 C.3     
  24 F24           -0.9328    -6.2267     0.7893 F       
  25 F25           -1.9030    -4.3877     1.7359 F       
  26 F26           -1.9248    -4.6502    -0.5334 F       
  27 H27           -0.8142     1.8007    -0.4741 H       
  28 H28           -0.7397    -0.6264    -0.1680 H       
  29 H29            1.3131    -5.8852     0.7289 H       
  30 H30            3.4542    -4.6818     0.5680 H       
  31 H31            3.4763    -2.2383     0.2786 H       
  32 H32            6.0119     4.2619     0.9610 H       
  33 H33            3.4134     3.7538     1.2329 H       
  34 H34            6.2947    -0.1094    -1.0175 H       
  35 H35            4.6007    -0.5600    -0.7084 H       
  36 H36            3.9205     0.8300    -2.6876 H       
  37 H37           -0.8005    -2.2048     0.3174 H       
  38 H38            6.9386     1.0115    -3.1058 H       
  39 H39            5.6964     1.5699    -4.2519 H       
  40 H40            5.8680     2.3647    -2.6685 H       
  41 H41            4.3030    -1.6100    -2.9087 H       
  42 H42            4.7825    -0.7512    -4.3922 H       
  43 H43            6.0247    -1.3095    -3.2461 H       
@<TRIPOS>BOND
   1    1    2 2
   2    1    6 1
   3    1   27 1
   4    2    3 1
   5    2   28 1
   6    3    4 1
   7    3    7 1
   8    4    5 2
   9    5    6 1
  10    5   12 1
  11    6   19 2
  12    7   20 ar
  13    7   11 ar
  14    8    9 ar
  15    8   23 1
  16    8   20 ar
  17    9   10 ar
  18    9   29 1
  19   10   11 ar
  20   10   30 1
  21   11   31 1
  22   12   13 1
  23   12   16 2
  24   13   14 1
  25   13   17 1
  26   14   15 2
  27   15   16 1
  28   15   32 1
  29   16   33 1
  30   17   18 1
  31   17   34 1
  32   17   35 1
  33   18   21 1
  34   18   22 1
  35   18   36 1
  36   20   37 1
  37   21   38 1
  38   21   39 1
  39   21   40 1
  40   22   41 1
  41   22   42 1
  42   22   43 1
  43   23   24 1
  44   23   25 1
  45   23   26 1

#	End of record

