#	Name: ASD01478030
#	Creating user name:	WinNT
#	Creation time:	15. 06. 2019 19:21

#	Modifying user name:	WinNT
#	Modification time:	15. 06. 2019 19:21

#	Program:	/corina/corina34_cracker 3.40 0067  02.08.2006

@<TRIPOS>MOLECULE
ASD01478030
  80   82    0    0    0
SMALL
NO_CHARGES


@<TRIPOS>ATOM
   1 C1            -0.7417    -0.0205    -1.8908 C.3     
   2 C2            -0.9207    -1.4013    -2.3146 C.3     
   3 C3             0.7456     0.3710    -1.7751 C.3     
   4 C4             1.2761    -0.1487    -0.4663 C.3     
   5 C5             1.9460    -1.5288    -0.6082 C.3     
   6 C6             1.1628    -2.4810    -1.5322 C.3     
   7 C7            -0.3234    -2.4069    -1.3090 C.3     
   8 C8            -1.8734     2.0202    -2.3918 C.2     
   9 O9            -1.3846     0.8543    -2.8551 O.3     
  10 N10           -2.4821     2.8780    -3.2345 N.am    
  11 O11           -1.7658     2.2990    -1.2141 O.2     
  12 C12           -1.8982     5.1931    -2.7047 C.3     
  13 C13           -3.0139     4.1466    -2.7305 C.3     
  14 C14           -4.1421     4.6263    -3.6459 C.3     
  15 C15           -4.7804     5.8839    -3.0527 C.3     
  16 N16           -5.9518     6.2589    -3.8486 N.am    
  17 S17           -7.4604     5.7514    -3.3914 S.o2    
  18 C18           -8.1217     6.9825    -2.3181 C.ar    
  19 C19           -8.8567     8.0307    -2.8403 C.ar    
  20 C20           -9.3763     8.9971    -2.0009 C.ar    
  21 C21           -9.1599     8.9152    -0.6330 C.ar    
  22 C22           -8.4220     7.8624    -0.1116 C.ar    
  23 C23           -7.9094     6.8955    -0.9546 C.ar    
  24 O24           -8.2622     5.7690    -4.5644 O.2     
  25 O25           -7.2691     4.5881    -2.5981 O.2     
  26 C26           -5.7886     7.0827    -5.0490 C.3     
  27 C27           -5.2554     8.4610    -4.6529 C.3     
  28 C28           -4.9432     9.2688    -5.9142 C.3     
  29 C29           -6.3100     9.1970    -3.8240 C.3     
  30 O30           -3.6118     4.9257    -4.9387 O.3     
  31 O31           -9.6696     9.8649     0.1947 O.3     
  32 C32           -9.4072     9.7166     1.5916 C.3     
  33 C33           -0.8442     4.7794    -1.7102 C.ar    
  34 C34            0.2182     3.9935    -2.1156 C.ar    
  35 C35            1.1849     3.6140    -1.2033 C.ar    
  36 C36            1.0894     4.0208     0.1144 C.ar    
  37 C37            0.0275     4.8075     0.5196 C.ar    
  38 C38           -0.9370     5.1906    -0.3936 C.ar    
  39 H39           -1.2191     0.1155    -0.9204 H       
  40 H40           -1.9865    -1.6019    -2.4236 H       
  41 H41           -0.4368    -1.5394    -3.2815 H       
  42 H42            1.3059    -0.0713    -2.5988 H       
  43 H43            0.8419     1.4563    -1.8041 H       
  44 H44            2.0068     0.5595    -0.0758 H       
  45 H45            0.4514    -0.2282     0.2419 H       
  46 H46            2.9491    -1.3928    -1.0125 H       
  47 H47            2.0260    -1.9839     0.3790 H       
  48 H48            1.3770    -2.2217    -2.5690 H       
  49 H49            1.4962    -3.5026    -1.3501 H       
  50 H50           -0.5246    -2.0707    -0.2918 H       
  51 H51           -0.7669    -3.3900    -1.4670 H       
  52 H52           -2.5680     2.6554    -4.1747 H       
  53 H53           -1.4514     5.2723    -3.6958 H       
  54 H54           -2.3124     6.1588    -2.4147 H       
  55 H55           -3.4008     4.0031    -1.7216 H       
  56 H56           -4.8956     3.8437    -3.7347 H       
  57 H57           -5.0871     5.6858    -2.0257 H       
  58 H58           -4.0567     6.6989    -3.0650 H       
  59 H59           -9.0246     8.0942    -3.9053 H       
  60 H60           -9.9501     9.8158    -2.4093 H       
  61 H61           -8.2523     7.7965     0.9529 H       
  62 H62           -7.3349     6.0758    -0.5492 H       
  63 H63           -5.0836     6.6015    -5.7269 H       
  64 H64           -6.7520     7.1950    -5.5463 H       
  65 H65           -4.3466     8.3432    -4.0627 H       
  66 H66           -5.8519     9.3866    -6.5045 H       
  67 H67           -4.5633    10.2507    -5.6321 H       
  68 H68           -4.1918     8.7445    -6.5048 H       
  69 H69           -7.2164     9.3209    -4.4166 H       
  70 H70           -6.5375     8.6181    -2.9289 H       
  71 H71           -5.9274    10.1762    -3.5360 H       
  72 H72           -3.0001     5.6746    -4.9491 H       
  73 H73           -9.8692    10.5392     2.1374 H       
  74 H74           -9.8216     8.7708     1.9407 H       
  75 H75           -8.3307     9.7266     1.7621 H       
  76 H76            0.2928     3.6757    -3.1451 H       
  77 H77            2.0146     2.9994    -1.5200 H       
  78 H78            1.8443     3.7237     0.8273 H       
  79 H79           -0.0473     5.1250     1.5492 H       
  80 H80           -1.7647     5.8083    -0.0778 H       
@<TRIPOS>BOND
   1    1    2 1
   2    1    3 1
   3    1    9 1
   4    1   39 1
   5    2    7 1
   6    2   40 1
   7    2   41 1
   8    3    4 1
   9    3   42 1
  10    3   43 1
  11    4    5 1
  12    4   44 1
  13    4   45 1
  14    5    6 1
  15    5   46 1
  16    5   47 1
  17    6    7 1
  18    6   48 1
  19    6   49 1
  20    7   50 1
  21    7   51 1
  22    8    9 1
  23    8   10 am
  24    8   11 2
  25   10   13 1
  26   10   52 1
  27   12   13 1
  28   12   33 1
  29   12   53 1
  30   12   54 1
  31   13   14 1
  32   13   55 1
  33   14   15 1
  34   14   30 1
  35   14   56 1
  36   15   16 1
  37   15   57 1
  38   15   58 1
  39   16   17 am
  40   16   26 1
  41   17   18 1
  42   17   24 2
  43   17   25 2
  44   18   19 ar
  45   18   23 ar
  46   19   20 ar
  47   19   59 1
  48   20   21 ar
  49   20   60 1
  50   21   22 ar
  51   21   31 1
  52   22   23 ar
  53   22   61 1
  54   23   62 1
  55   26   27 1
  56   26   63 1
  57   26   64 1
  58   27   28 1
  59   27   29 1
  60   27   65 1
  61   28   66 1
  62   28   67 1
  63   28   68 1
  64   29   69 1
  65   29   70 1
  66   29   71 1
  67   30   72 1
  68   31   32 1
  69   32   73 1
  70   32   74 1
  71   32   75 1
  72   33   34 ar
  73   33   38 ar
  74   34   35 ar
  75   34   76 1
  76   35   36 ar
  77   35   77 1
  78   36   37 ar
  79   36   78 1
  80   37   38 ar
  81   37   79 1
  82   38   80 1

#	End of record

