#	Name: ASD01812778
#	Creating user name:	WinNT
#	Creation time:	15. 06. 2019 19:29

#	Modifying user name:	WinNT
#	Modification time:	15. 06. 2019 19:29

#	Program:	/corina/corina34_cracker 3.40 0067  02.08.2006

@<TRIPOS>MOLECULE
ASD01812778
  54   58    0    0    0
SMALL
NO_CHARGES


@<TRIPOS>ATOM
   1 N1             0.0027     1.3186    -0.2236 N.ar    
   2 C2             0.0319     0.0060    -0.3477 C.ar    
   3 C3             1.2340    -0.6841    -0.3695 C.ar    
   4 C4             2.4113     0.0206    -0.2597 C.ar    
   5 C5             2.3614     1.4133    -0.1292 C.ar    
   6 C6             1.1073     2.0396    -0.1149 C.ar    
   7 C7             3.8681    -0.3581    -0.2426 C.3     
   8 N8             4.6151     0.8975    -0.0961 N.am    
   9 C9             3.7394     1.9162    -0.0312 C.2     
  10 C10            6.0735     1.0203    -0.0317 C.3     
  11 C11            6.6246     1.1969    -1.4232 C.ar    
  12 C12            6.7716     2.4673    -1.9500 C.ar    
  13 C13            7.2759     2.6348    -3.2239 C.ar    
  14 C14            7.6375     1.5214    -3.9791 C.ar    
  15 C15            7.4878     0.2442    -3.4435 C.ar    
  16 C16            6.9870     0.0883    -2.1667 C.ar    
  17 O17            1.0259     3.3855     0.0104 O.3     
  18 O18            4.0442     3.0870     0.0911 O.2     
  19 C19            8.1800     1.6955    -5.3501 C.2     
  20 C20            8.5664     0.6979    -6.1969 C.2     
  21 C21            8.3836     2.9201    -6.0155 C.2     
  22 N22            8.8726     2.6624    -7.1995 N.2     
  23 N23            8.9919     1.2744    -7.3390 N.pl3   
  24 C24            9.4968     0.5701    -8.5203 C.3     
  25 C25           -0.2021     3.9617    -0.0794 C.ar    
  26 C26           -2.7064     5.1348    -0.2567 C.ar    
  27 C27           -1.9021     5.0433    -1.3835 C.ar    
  28 C28           -0.6494     4.4562    -1.2948 C.ar    
  29 C29           -1.0126     4.0505     1.0456 C.ar    
  30 C30           -2.2622     4.6366     0.9536 C.ar    
  31 F31           -0.5803     3.5641     2.2295 F       
  32 O32           -2.3403     5.5338    -2.5732 O.3     
  33 C33           -3.6387     6.1302    -2.5903 C.3     
  34 H34           -0.8958    -0.5403    -0.4334 H       
  35 H35            1.2467    -1.7593    -0.4708 H       
  36 H36            4.0742    -1.0174     0.6006 H       
  37 H37            4.1390    -0.8485    -1.1776 H       
  38 H38            6.3388     1.8849     0.5766 H       
  39 H39            6.4947     0.1192     0.4142 H       
  40 H40            6.4910     3.3298    -1.3637 H       
  41 H41            7.3896     3.6271    -3.6346 H       
  42 H42            7.7666    -0.6222    -4.0248 H       
  43 H43            6.8740    -0.9012    -1.7491 H       
  44 H44            8.5371    -0.3616    -5.9897 H       
  45 H45            8.1723     3.9012    -5.6165 H       
  46 H46            8.6682     0.3479    -9.1926 H       
  47 H47           10.2237     1.1986    -9.0349 H       
  48 H48            9.9743    -0.3601    -8.2123 H       
  49 H49           -3.6822     5.5923    -0.3262 H       
  50 H50           -0.0226     4.3845    -2.1713 H       
  51 H51           -2.8897     4.7091     1.8296 H       
  52 H52           -3.8649     6.4795    -3.5978 H       
  53 H53           -4.3814     5.3926    -2.2862 H       
  54 H54           -3.6604     6.9735    -1.9000 H       
@<TRIPOS>BOND
   1    1    2 ar
   2    1    6 ar
   3    2    3 ar
   4    2   34 1
   5    3    4 ar
   6    3   35 1
   7    4    7 1
   8    4    5 ar
   9    5    6 ar
  10    5    9 1
  11    6   17 1
  12    7    8 1
  13    7   36 1
  14    7   37 1
  15    8    9 am
  16    8   10 1
  17    9   18 2
  18   10   11 1
  19   10   38 1
  20   10   39 1
  21   11   12 ar
  22   11   16 ar
  23   12   13 ar
  24   12   40 1
  25   13   14 ar
  26   13   41 1
  27   14   15 ar
  28   14   19 1
  29   15   16 ar
  30   15   42 1
  31   16   43 1
  32   17   25 1
  33   19   21 1
  34   19   20 2
  35   20   23 1
  36   20   44 1
  37   21   22 2
  38   21   45 1
  39   22   23 1
  40   23   24 1
  41   24   46 1
  42   24   47 1
  43   24   48 1
  44   25   29 ar
  45   25   28 ar
  46   26   27 ar
  47   26   30 ar
  48   26   49 1
  49   27   28 ar
  50   27   32 1
  51   28   50 1
  52   29   30 ar
  53   29   31 1
  54   30   51 1
  55   32   33 1
  56   33   52 1
  57   33   53 1
  58   33   54 1

#	End of record

