#	Name: ASD01916052
#	Creating user name:	WinNT
#	Creation time:	15. 06. 2019 20:06

#	Modifying user name:	WinNT
#	Modification time:	15. 06. 2019 20:06

#	Program:	/corina/corina34_cracker 3.40 0067  02.08.2006

@<TRIPOS>MOLECULE
ASD01916052
  43   45    0    0    0
SMALL
NO_CHARGES


@<TRIPOS>ATOM
   1 C1            -0.0169     1.3974     0.0097 C.ar    
   2 C2             0.0021    -0.0041     0.0020 C.ar    
   3 C3            -1.2070    -0.6758     0.0100 C.ar    
   4 C4            -2.3852     0.0496     0.0252 C.ar    
   5 C5            -3.7040    -0.6796     0.0344 C.3     
   6 C6             1.2059     2.1425     0.0021 C.1     
   7 C7             2.2084     2.7534    -0.0042 C.1     
   8 C8             3.4313     3.4985    -0.0119 C.ar    
   9 C9             3.4020     4.8954    -0.0041 C.ar    
  10 C10            5.8338     3.5569    -0.0288 C.ar    
  11 C11            4.5837     5.6072    -0.0116 C.ar    
  12 N12           -2.3736     1.3687     0.0322 N.ar    
  13 C13           -1.2496     2.0547     0.0192 C.ar    
  14 C14            4.6594     2.8319    -0.0214 C.ar    
  15 C15            5.7963     4.9416    -0.0268 C.ar    
  16 C16           -4.1306    -1.0447    -1.4063 C.3     
  17 C17           -3.5653    -2.0158     0.7301 C.2     
  18 N18           -4.1791    -2.9748     0.0157 N.am    
  19 C19           -4.7930    -2.4247    -1.1985 C.3     
  20 C20           -4.2293    -4.3876     0.4001 C.3     
  21 O21           -2.9842    -2.1956     1.7794 O.2     
  22 C22           -6.3018    -2.2637    -1.0027 C.3     
  23 C23           -4.5075    -3.3346    -2.3950 C.3     
  24 Cl24           7.3610     2.7318    -0.0474 Cl      
  25 H25            0.9365    -0.5454    -0.0102 H       
  26 H26           -1.2312    -1.7555     0.0041 H       
  27 H27           -4.4706    -0.0736     0.5173 H       
  28 H28            2.4563     5.4168     0.0074 H       
  29 H29            4.5620     6.6869    -0.0060 H       
  30 H30           -1.2809     3.1342     0.0258 H       
  31 H31            4.6895     1.7524    -0.0227 H       
  32 H32            6.7181     5.5042    -0.0327 H       
  33 H33           -4.8481    -0.3223    -1.7956 H       
  34 H34           -3.2634    -1.1230    -2.0619 H       
  35 H35           -3.6977    -4.5271     1.3415 H       
  36 H36           -5.2682    -4.6947     0.5205 H       
  37 H37           -3.7592    -4.9921    -0.3756 H       
  38 H38           -6.4899    -1.6065    -0.1537 H       
  39 H39           -6.7407    -1.8307    -1.9016 H       
  40 H40           -6.7498    -3.2392    -0.8132 H       
  41 H41           -4.9424    -4.3178    -2.2157 H       
  42 H42           -4.9466    -2.9015    -3.2937 H       
  43 H43           -3.4301    -3.4326    -2.5280 H       
@<TRIPOS>BOND
   1    1    2 ar
   2    1    6 1
   3    1   13 ar
   4    2    3 ar
   5    2   25 1
   6    3    4 ar
   7    3   26 1
   8    4   12 ar
   9    4    5 1
  10    5   16 1
  11    5   17 1
  12    5   27 1
  13    6    7 3
  14    7    8 1
  15    8    9 ar
  16    8   14 ar
  17    9   11 ar
  18    9   28 1
  19   10   15 ar
  20   10   24 1
  21   10   14 ar
  22   11   15 ar
  23   11   29 1
  24   12   13 ar
  25   13   30 1
  26   14   31 1
  27   15   32 1
  28   16   19 1
  29   16   33 1
  30   16   34 1
  31   17   18 am
  32   17   21 2
  33   18   19 1
  34   18   20 1
  35   19   22 1
  36   19   23 1
  37   20   35 1
  38   20   36 1
  39   20   37 1
  40   22   38 1
  41   22   39 1
  42   22   40 1
  43   23   41 1
  44   23   42 1
  45   23   43 1

#	End of record

