#	Name: ASD03430357
#	Creating user name:	WinNT
#	Creation time:	15. 06. 2019 20:40

#	Modifying user name:	WinNT
#	Modification time:	15. 06. 2019 20:40

#	Program:	/corina/corina34_cracker 3.40 0067  02.08.2006

@<TRIPOS>MOLECULE
ASD03430357
  42   46    0    0    0
SMALL
NO_CHARGES


@<TRIPOS>ATOM
   1 C1            -0.0167     1.3799     0.0096 C.ar    
   2 C2             0.0021    -0.0041     0.0020 C.ar    
   3 C3             1.2035    -0.6800    -0.0138 C.ar    
   4 C4             2.4083     0.0167    -0.0091 C.ar    
   5 C5             2.3825     1.4082    -0.0064 C.ar    
   6 C6             1.1781     2.0840     0.0020 C.ar    
   7 O7             3.4722    -0.8356     0.0057 O.3     
   8 C8             1.5543    -2.1432    -0.0522 C.3     
   9 C9             3.0423    -2.1397    -0.4294 C.3     
  10 C10            0.4280    -3.8679     0.9861 C.ar    
  11 C11            1.3111    -2.8260     1.2605 C.ar    
  12 C12            0.7281    -2.8991    -1.0533 C.2     
  13 N13            0.1075    -3.8835    -0.3734 N.am    
  14 O14            0.6374    -2.6688    -2.2406 O.2     
  15 C15            1.7659    -2.6142     2.5426 C.ar    
  16 C16            1.3481    -3.4394     3.5719 C.ar    
  17 C17            0.4730    -4.4777     3.3108 C.ar    
  18 C18            0.0135    -4.6935     2.0278 C.ar    
  19 C19           -0.7976    -4.8573    -0.9889 C.3     
  20 F20           -1.1942     2.0422     0.0188 F       
  21 F21            1.1638     3.4350     0.0028 F       
  22 C22           -2.2076    -4.3267    -0.9506 C.ar    
  23 C23           -2.6878    -3.5643    -1.9990 C.ar    
  24 C24           -3.0223    -4.6074     0.1304 C.ar    
  25 C25           -4.3158    -4.1214     0.1658 C.ar    
  26 C26           -4.7949    -3.3541    -0.8806 C.ar    
  27 C27           -3.9809    -3.0775    -1.9643 C.ar    
  28 Br28          -6.5646    -2.6893    -0.8331 Br      
  29 H29           -0.9265    -0.5556     0.0089 H       
  30 H30            3.3094     1.9625    -0.0108 H       
  31 H31            3.1687    -2.2494    -1.5065 H       
  32 H32            3.5791    -2.9228     0.1061 H       
  33 H33            2.4492    -1.8028     2.7453 H       
  34 H34            1.7053    -3.2730     4.5775 H       
  35 H35            0.1477    -5.1220     4.1142 H       
  36 H36           -0.6703    -5.5058     1.8308 H       
  37 H37           -0.5007    -5.0255    -2.0241 H       
  38 H38           -0.7480    -5.7973    -0.4393 H       
  39 H39           -2.0522    -3.3487    -2.8452 H       
  40 H40           -2.6483    -5.2068     0.9472 H       
  41 H41           -4.9523    -4.3410     1.0102 H       
  42 H42           -4.3546    -2.4785    -2.7815 H       
@<TRIPOS>BOND
   1    1    2 ar
   2    1    6 ar
   3    1   20 1
   4    2    3 ar
   5    2   29 1
   6    3    4 ar
   7    3    8 1
   8    4    5 ar
   9    4    7 1
  10    5    6 ar
  11    5   30 1
  12    6   21 1
  13    7    9 1
  14    8    9 1
  15    8   11 1
  16    8   12 1
  17    9   31 1
  18    9   32 1
  19   10   11 ar
  20   10   13 1
  21   10   18 ar
  22   11   15 ar
  23   12   13 am
  24   12   14 2
  25   13   19 1
  26   15   16 ar
  27   15   33 1
  28   16   17 ar
  29   16   34 1
  30   17   18 ar
  31   17   35 1
  32   18   36 1
  33   19   22 1
  34   19   37 1
  35   19   38 1
  36   22   23 ar
  37   22   24 ar
  38   23   27 ar
  39   23   39 1
  40   24   25 ar
  41   24   40 1
  42   25   26 ar
  43   25   41 1
  44   26   27 ar
  45   26   28 1
  46   27   42 1

#	End of record

