#	Name: ASD03240431
#	Creating user name:	WinNT
#	Creation time:	15. 06. 2019 20:34

#	Modifying user name:	WinNT
#	Modification time:	15. 06. 2019 20:34

#	Program:	/corina/corina34_cracker 3.40 0067  02.08.2006

@<TRIPOS>MOLECULE
ASD03240431
  31   32    0    0    0
SMALL
NO_CHARGES


@<TRIPOS>ATOM
   1 C1            -0.0688     1.4763     0.0646 C.ar    
   2 C2            -0.1603     0.1014    -0.0464 C.ar    
   3 C3             2.2924     2.5351    -2.2541 C.ar    
   4 C4             1.3904     2.9289    -1.2833 C.ar    
   5 C5             1.2782     2.1491     0.0014 C.3     
   6 C6             2.3961     3.2501    -3.4323 C.ar    
   7 C7             1.5970     4.3603    -3.6400 C.ar    
   8 C8             0.6945     4.7540    -2.6681 C.ar    
   9 C9             0.5917     4.0381    -1.4902 C.ar    
  10 Cl10           1.7271     5.2593    -5.1194 Cl      
  11 C11           -1.3954    -0.5162     0.0110 C.ar    
  12 C12           -2.5404     0.2419     0.1797 C.ar    
  13 C13           -2.4482     1.6179     0.2908 C.ar    
  14 C14           -1.2130     2.2348     0.2279 C.ar    
  15 Cl15          -4.0922    -0.5330     0.2514 Cl      
  16 C16            1.4272     3.0859     1.1724 C.2     
  17 O17            1.6062     4.2658     0.9832 O.2     
  18 O18            1.3612     2.6096     2.4256 O.3     
  19 C19            1.5132     3.5694     3.5044 C.3     
  20 H20            0.7335    -0.4903    -0.1785 H       
  21 H21            2.9192     1.6710    -2.0899 H       
  22 H22            2.0635     1.3941     0.0379 H       
  23 H23            3.1010     2.9426    -4.1905 H       
  24 H24            0.0704     5.6205    -2.8296 H       
  25 H25           -0.1130     4.3451    -0.7316 H       
  26 H26           -1.4668    -1.5903    -0.0761 H       
  27 H27           -3.3417     2.2102     0.4221 H       
  28 H28           -1.1408     3.3088     0.3150 H       
  29 H29            0.7273     4.3215     3.4351 H       
  30 H30            1.4397     3.0542     4.4622 H       
  31 H31            2.4869     4.0531     3.4259 H       
@<TRIPOS>BOND
   1    1    2 ar
   2    1    5 1
   3    1   14 ar
   4    2   11 ar
   5    2   20 1
   6    3    4 ar
   7    3    6 ar
   8    3   21 1
   9    4    5 1
  10    4    9 ar
  11    5   16 1
  12    5   22 1
  13    6    7 ar
  14    6   23 1
  15    7    8 ar
  16    7   10 1
  17    8    9 ar
  18    8   24 1
  19    9   25 1
  20   11   12 ar
  21   11   26 1
  22   12   13 ar
  23   12   15 1
  24   13   14 ar
  25   13   27 1
  26   14   28 1
  27   16   17 2
  28   16   18 1
  29   18   19 1
  30   19   29 1
  31   19   30 1
  32   19   31 1

#	End of record

