#	Name: ASD02500750
#	Creating user name:	WinNT
#	Creation time:	15. 06. 2019 20:23

#	Modifying user name:	WinNT
#	Modification time:	15. 06. 2019 20:23

#	Program:	/corina/corina34_cracker 3.40 0067  02.08.2006

@<TRIPOS>MOLECULE
ASD02500750
  26   27    0    0    0
SMALL
NO_CHARGES


@<TRIPOS>ATOM
   1 N1            -0.0168     1.3847     0.0097 N.pl3   
   2 C2             0.0021    -0.0041     0.0020 C.2     
   3 C3             1.3236    -0.4055    -0.0128 C.2     
   4 C4             2.1313     0.7634    -0.0142 C.2     
   5 C5             1.2646     1.8541    -0.0001 C.2     
   6 C6            -0.8938    -1.0802     0.0048 C.2     
   7 C7            -0.3431    -2.2874    -0.0069 C.2     
   8 S8             1.4084    -2.1631    -0.0235 S.3     
   9 C9             1.6621     3.2677     0.0033 C.2     
  10 O10            2.8402     3.5679    -0.0067 O.2     
  11 O11            0.7202     4.2330     0.0175 O.3     
  12 N12           -1.0992    -3.5602    -0.0067 N.pl3   
  13 O13           -2.3170    -3.5452     0.0050 O.2     
  14 O14           -0.5033    -4.6225    -0.0180 O.2     
  15 C15            3.5988     0.8126    -0.0275 C.2     
  16 O16            4.1698     1.8827    -0.0273 O.2     
  17 C17            1.1858     5.6083     0.0200 C.3     
  18 C18           -0.0169     6.5540     0.0367 C.3     
  19 H19           -0.8156     1.9348     0.0166 H       
  20 H20           -1.9642    -0.9369     0.0161 H       
  21 H21            4.1697    -0.1041    -0.0375 H       
  22 H22            1.7977     5.7832     0.9049 H       
  23 H23            1.7802     5.7923    -0.8749 H       
  24 H24           -0.6113     6.3700     0.9317 H       
  25 H25            0.3327     7.5864     0.0386 H       
  26 H26           -0.6288     6.3791    -0.8482 H       
@<TRIPOS>BOND
   1    1    2 1
   2    1    5 1
   3    1   19 1
   4    2    3 2
   5    2    6 1
   6    3    4 1
   7    3    8 1
   8    4    5 2
   9    4   15 1
  10    5    9 1
  11    6    7 2
  12    6   20 1
  13    7    8 1
  14    7   12 1
  15    9   10 2
  16    9   11 1
  17   11   17 1
  18   12   13 2
  19   12   14 2
  20   15   16 2
  21   15   21 1
  22   17   18 1
  23   17   22 1
  24   17   23 1
  25   18   24 1
  26   18   25 1
  27   18   26 1

#	End of record

