#	Name: ASD01881968
#	Creating user name:	WinNT
#	Creation time:	15. 06. 2019 19:43

#	Modifying user name:	WinNT
#	Modification time:	15. 06. 2019 19:43

#	Program:	/corina/corina34_cracker 3.40 0067  02.08.2006

@<TRIPOS>MOLECULE
ASD01881968
  59   63    0    0    0
SMALL
NO_CHARGES


@<TRIPOS>ATOM
   1 N1            -0.0178     1.4642     0.0101 N.3     
   2 C2             0.0021    -0.0041     0.0020 C.3     
   3 C3             0.6797    -0.4993    -1.2777 C.3     
   4 C4             2.1079     0.0494    -1.3384 C.3     
   5 C5             2.0615     1.5788    -1.2797 C.3     
   6 C6             1.3439     2.0138     0.0000 C.3     
   7 C7             2.8809    -0.4635    -0.1956 C.1     
   8 N8             3.4775    -0.8594     0.6864 N.1     
   9 C9             2.7602    -0.3856    -2.6253 C.ar    
  10 C10            3.9217     0.2345    -3.0461 C.ar    
  11 C11            4.5141    -0.1736    -4.2312 C.ar    
  12 C12            3.9134    -1.1947    -4.9519 C.ar    
  13 C13            2.7526    -1.7675    -4.4685 C.ar    
  14 N14            2.2195    -1.3571    -3.3341 N.ar    
  15 C15           -0.7829     1.9741     1.1559 C.3     
  16 C16           -0.5764     3.4854     1.2751 C.3     
  17 C17           -1.3731     4.0164     2.4685 C.3     
  18 O18           -1.1803     5.4279     2.5799 O.3     
  19 N19           -3.6618     8.2145     6.5900 N.pl3   
  20 N20           -3.1511     9.4738     6.2420 N.2     
  21 N21           -2.3933     9.3579     5.2091 N.2     
  22 C22           -2.3424     8.0722     4.8071 C.ar    
  23 C23           -3.1489     7.3198     5.6786 C.ar    
  24 C24           -1.6779     7.4230     3.7576 C.ar    
  25 C25           -1.8241     6.0606     3.5970 C.ar    
  26 C26           -2.6265     5.3285     4.4688 C.ar    
  27 C27           -3.2814     5.9480     5.4957 C.ar    
  28 C28           -4.5591     7.9105     7.7074 C.3     
  29 C29           -6.0117     8.0304     7.2422 C.3     
  30 C30           -7.1065     7.6365     8.2357 C.3     
  31 C31           -6.8760     9.1104     7.8960 C.3     
  32 Br32          -0.5866     8.4088     2.5689 Br      
  33 H33            0.5557    -0.3645     0.8690 H       
  34 H34           -1.0198    -0.3814     0.0413 H       
  35 H35            0.7083    -1.5890    -1.2760 H       
  36 H36            0.1187    -0.1507    -2.1448 H       
  37 H37            3.0774     1.9739    -1.2795 H       
  38 H38            1.5223     1.9601    -2.1469 H       
  39 H39            1.2966     3.1021     0.0379 H       
  40 H40            1.8912     1.6439     0.8670 H       
  41 H41            4.3619     1.0271    -2.4593 H       
  42 H42            5.4217     0.2930    -4.5848 H       
  43 H43            4.3472    -1.5377    -5.8796 H       
  44 H44            2.2786    -2.5633    -5.0239 H       
  45 H45           -1.8420     1.7626     1.0087 H       
  46 H46           -0.4385     1.4872     2.0683 H       
  47 H47            0.4827     3.6969     1.4223 H       
  48 H48           -0.9207     3.9723     0.3627 H       
  49 H49           -2.4322     3.8049     2.3213 H       
  50 H50           -1.0288     3.5295     3.3809 H       
  51 H51           -2.7325     4.2625     4.3316 H       
  52 H52           -3.9015     5.3716     6.1661 H       
  53 H53           -4.3724     6.8953     8.0576 H       
  54 H54           -4.3786     8.6141     8.5202 H       
  55 H55           -6.1872     7.8146     6.1883 H       
  56 H56           -8.0024     7.1619     7.8354 H       
  57 H57           -6.7920     7.2920     9.2208 H       
  58 H58           -6.4098     9.7355     8.6576 H       
  59 H59           -7.6203     9.6055     7.2722 H       
@<TRIPOS>BOND
   1    1    2 1
   2    1    6 1
   3    1   15 1
   4    2    3 1
   5    2   33 1
   6    2   34 1
   7    3    4 1
   8    3   35 1
   9    3   36 1
  10    4    5 1
  11    4    7 1
  12    4    9 1
  13    5    6 1
  14    5   37 1
  15    5   38 1
  16    6   39 1
  17    6   40 1
  18    7    8 3
  19    9   10 ar
  20    9   14 ar
  21   10   11 ar
  22   10   41 1
  23   11   12 ar
  24   11   42 1
  25   12   13 ar
  26   12   43 1
  27   13   14 ar
  28   13   44 1
  29   15   16 1
  30   15   45 1
  31   15   46 1
  32   16   17 1
  33   16   47 1
  34   16   48 1
  35   17   18 1
  36   17   49 1
  37   17   50 1
  38   18   25 1
  39   19   20 1
  40   19   23 1
  41   19   28 1
  42   20   21 2
  43   21   22 1
  44   22   23 ar
  45   22   24 ar
  46   23   27 ar
  47   24   25 ar
  48   24   32 1
  49   25   26 ar
  50   26   27 ar
  51   26   51 1
  52   27   52 1
  53   28   29 1
  54   28   53 1
  55   28   54 1
  56   29   30 1
  57   29   31 1
  58   29   55 1
  59   30   31 1
  60   30   56 1
  61   30   57 1
  62   31   58 1
  63   31   59 1

#	End of record

