#	Name: ASD04590699
#	Creating user name:	WinNT
#	Creation time:	15. 06. 2019 20:51

#	Modifying user name:	WinNT
#	Modification time:	15. 06. 2019 20:51

#	Program:	/corina/corina34_cracker 3.40 0067  02.08.2006

@<TRIPOS>MOLECULE
ASD04590699
  86   91    0    0    0
SMALL
NO_CHARGES


@<TRIPOS>ATOM
   1 N1            -2.3783    -2.7059     0.0202 N.ar    
   2 C2            -1.2117    -2.0738     0.0039 C.ar    
   3 N3            -0.0574    -2.7202    -0.0183 N.ar    
   4 C4            -0.0260    -4.0496    -0.0246 C.ar    
   5 C5            -1.2488    -4.7506    -0.0072 C.ar    
   6 C6            -2.4371    -4.0274     0.0154 C.ar    
   7 N7             0.9973    -4.9640    -0.0458 N.pl3   
   8 C8             0.4930    -6.2538    -0.0430 C.ar    
   9 C9            -0.9096    -6.1793    -0.0192 C.ar    
  10 N10           -1.2020    -0.6888     0.0098 N.pl3   
  11 C11           -2.4014     0.0175    -0.0802 C.ar    
  12 C12            2.4221    -4.6237    -0.0689 C.3     
  13 C13            2.7452    -3.7927    -1.3231 C.3     
  14 C14            1.0885    -7.5120    -0.0585 C.ar    
  15 N15            0.3453    -8.6019    -0.0508 N.ar    
  16 C16           -0.9759    -8.5583    -0.0285 C.ar    
  17 C17           -1.6449    -7.3655    -0.0125 C.ar    
  18 C18            3.2827    -2.4350    -0.8257 C.3     
  19 C19            3.8159    -2.7357     0.5971 C.3     
  20 C20            2.7745    -3.7419     1.1468 C.3     
  21 N21           -3.5341    -0.6390    -0.2721 N.ar    
  22 C22           -4.6919    -0.0125    -0.3630 C.ar    
  23 C23           -4.7607     1.3687    -0.2594 C.ar    
  24 C24           -3.5876     2.0943    -0.0570 C.ar    
  25 C25           -2.3938     1.4030     0.0385 C.ar    
  26 N26           -5.9927     2.0262    -0.3574 N.3     
  27 F27            2.4352    -7.6176    -0.0820 F       
  28 C28           -7.0852     1.0680    -0.5693 C.3     
  29 C29           -8.3907     1.8274    -0.8163 C.3     
  30 C30           -8.6945     2.7172     0.3922 C.3     
  31 C31           -7.5201     3.6728     0.6204 C.3     
  32 C32           -6.2398     2.8600     0.8258 C.3     
  33 C33           -9.9664     3.5247     0.1257 C.3     
  34 C34          -10.3383     4.3188     1.3795 C.3     
  35 O35          -11.5263     5.0730     1.1306 O.3     
  36 Si36         -12.0240     5.9654     2.4019 Si      
  37 C37          -13.5733     6.8921     1.9415 C.3     
  38 C38          -12.3773     4.8444     3.8473 C.3     
  39 C39          -10.6901     7.1792     2.8688 C.3     
  40 C40          -14.6688     5.8952     1.5580 C.3     
  41 C41          -14.0402     7.7292     3.1341 C.3     
  42 C42          -13.2832     7.8127     0.7545 C.3     
  43 H43           -3.3900    -4.5355     0.0295 H       
  44 H44           -0.3610    -0.2099     0.0766 H       
  45 H45            3.0231    -5.5329    -0.0584 H       
  46 H46            3.5037    -4.2983    -1.9208 H       
  47 H47            1.8420    -3.6427    -1.9145 H       
  48 H48           -1.5369    -9.4811    -0.0232 H       
  49 H49           -2.7245    -7.3419     0.0057 H       
  50 H50            4.0897    -2.0852    -1.4695 H       
  51 H51            2.4800    -1.6988    -0.7845 H       
  52 H52            4.8054    -3.1906     0.5506 H       
  53 H53            3.8343    -1.8294     1.2023 H       
  54 H54            1.8897    -3.2167     1.5065 H       
  55 H55            3.2107    -4.3458     1.9425 H       
  56 H56           -5.5961    -0.5817    -0.5202 H       
  57 H57           -3.6112     3.1708     0.0271 H       
  58 H58           -1.4660     1.9332     0.1956 H       
  59 H59           -6.8586     0.4443    -1.4340 H       
  60 H60           -7.1927     0.4387     0.3141 H       
  61 H61           -8.2885     2.4465    -1.7076 H       
  62 H62           -9.2043     1.1159    -0.9581 H       
  63 H63           -8.8352     2.0953     1.2762 H       
  64 H64           -7.4042     4.3210    -0.2482 H       
  65 H65           -7.7116     4.2799     1.5052 H       
  66 H66           -6.3513     2.2223     1.7027 H       
  67 H67           -5.3992     3.5378     0.9744 H       
  68 H68           -9.7934     4.2125    -0.7020 H       
  69 H69          -10.7806     2.8464    -0.1295 H       
  70 H70          -10.5113     3.6311     2.2072 H       
  71 H71           -9.5242     4.9971     1.6347 H       
  72 H72          -11.4708     4.3022     4.1166 H       
  73 H73          -12.7099     5.4408     4.6969 H       
  74 H74          -13.1577     4.1342     3.5741 H       
  75 H75          -10.4834     7.8351     2.0231 H       
  76 H76          -11.0227     7.7756     3.7184 H       
  77 H77           -9.7836     6.6370     3.1382 H       
  78 H78          -14.8755     5.2393     2.4037 H       
  79 H79          -15.5753     6.4374     1.2887 H       
  80 H80          -14.3362     5.2988     0.7085 H       
  81 H81          -13.2597     8.4393     3.4073 H       
  82 H82          -14.9467     8.2713     2.8647 H       
  83 H83          -14.2469     7.0733     3.9797 H       
  84 H84          -12.9506     7.2163    -0.0951 H       
  85 H85          -14.1897     8.3549     0.4852 H       
  86 H86          -12.5028     8.5229     1.0277 H       
@<TRIPOS>BOND
   1    1    2 ar
   2    1    6 ar
   3    2    3 ar
   4    2   10 1
   5    3    4 ar
   6    4    5 ar
   7    4    7 1
   8    5    6 ar
   9    5    9 1
  10    6   43 1
  11    7    8 1
  12    7   12 1
  13    8    9 ar
  14    8   14 ar
  15    9   17 ar
  16   10   11 1
  17   10   44 1
  18   11   21 ar
  19   11   25 ar
  20   12   13 1
  21   12   20 1
  22   12   45 1
  23   13   18 1
  24   13   46 1
  25   13   47 1
  26   14   15 ar
  27   14   27 1
  28   15   16 ar
  29   16   17 ar
  30   16   48 1
  31   17   49 1
  32   18   19 1
  33   18   50 1
  34   18   51 1
  35   19   20 1
  36   19   52 1
  37   19   53 1
  38   20   54 1
  39   20   55 1
  40   21   22 ar
  41   22   23 ar
  42   22   56 1
  43   23   24 ar
  44   23   26 1
  45   24   25 ar
  46   24   57 1
  47   25   58 1
  48   26   28 1
  49   26   32 1
  50   28   29 1
  51   28   59 1
  52   28   60 1
  53   29   30 1
  54   29   61 1
  55   29   62 1
  56   30   31 1
  57   30   33 1
  58   30   63 1
  59   31   32 1
  60   31   64 1
  61   31   65 1
  62   32   66 1
  63   32   67 1
  64   33   34 1
  65   33   68 1
  66   33   69 1
  67   34   35 1
  68   34   70 1
  69   34   71 1
  70   35   36 1
  71   36   37 1
  72   36   38 1
  73   36   39 1
  74   37   40 1
  75   37   41 1
  76   37   42 1
  77   38   72 1
  78   38   73 1
  79   38   74 1
  80   39   75 1
  81   39   76 1
  82   39   77 1
  83   40   78 1
  84   40   79 1
  85   40   80 1
  86   41   81 1
  87   41   82 1
  88   41   83 1
  89   42   84 1
  90   42   85 1
  91   42   86 1

#	End of record

