#	Name: ASD01916255
#	Creating user name:	WinNT
#	Creation time:	15. 06. 2019 20:07

#	Modifying user name:	WinNT
#	Modification time:	15. 06. 2019 20:07

#	Program:	/corina/corina34_cracker 3.40 0067  02.08.2006

@<TRIPOS>MOLECULE
ASD01916255
  38   40    0    0    0
SMALL
NO_CHARGES


@<TRIPOS>ATOM
   1 C1            -0.0492     1.3262    -0.2461 C.ar    
   2 C2             0.0365    -0.0536    -0.1714 C.ar    
   3 C3             1.2317    -0.6577     0.1717 C.ar    
   4 C4             2.3550     0.1248     0.4431 C.ar    
   5 C5             2.2661     1.5152     0.3666 C.ar    
   6 C6             1.0642     2.1110     0.0225 C.ar    
   7 O7             0.9746     3.4648    -0.0528 O.3     
   8 C8             1.4704     4.0765    -1.1605 C.ar    
   9 C9             1.4052     5.4589    -1.3018 C.ar    
  10 N10            1.8994     6.0165    -2.3948 N.ar    
  11 C11            2.4474     5.2807    -3.3410 C.ar    
  12 N12            2.5276     3.9689    -3.2443 N.ar    
  13 C13            2.0615     3.3368    -2.1798 C.ar    
  14 F14           -1.0507    -0.8115    -0.4340 F       
  15 C15            3.6347    -0.5173     0.8108 C.2     
  16 N16            3.7180    -1.8605     0.8845 N.am    
  17 O17            4.6118     0.1661     1.0468 O.2     
  18 C18            4.9471    -2.4699     1.1266 C.ar    
  19 C19            5.0478    -3.8546     1.0855 C.ar    
  20 C20            6.2747    -4.4512     1.3273 C.ar    
  21 C21            7.3631    -3.6394     1.6030 C.ar    
  22 C22            7.1930    -2.2618     1.6286 C.ar    
  23 N23            6.0091    -1.7226     1.3884 N.ar    
  24 O24            8.2535    -1.4596     1.8978 O.3     
  25 C25            8.0147    -0.0508     1.9098 C.3     
  26 H26           -0.9840     1.7934    -0.5186 H       
  27 H27            1.2960    -1.7342     0.2301 H       
  28 H28            3.1323     2.1253     0.5760 H       
  29 H29            0.9572     6.0680    -0.5306 H       
  30 H30            2.8417     5.7668    -4.2211 H       
  31 H31            2.1309     2.2615    -2.1070 H       
  32 H32            2.9222    -2.4029     0.7689 H       
  33 H33            4.1798    -4.4593     0.8679 H       
  34 H34            6.3803    -5.5257     1.3017 H       
  35 H35            8.3330    -4.0734     1.7962 H       
  36 H36            7.6499     0.2642     0.9322 H       
  37 H37            7.2690     0.1849     2.6691 H       
  38 H38            8.9430     0.4732     2.1373 H       
@<TRIPOS>BOND
   1    1    2 ar
   2    1    6 ar
   3    1   26 1
   4    2    3 ar
   5    2   14 1
   6    3    4 ar
   7    3   27 1
   8    4    5 ar
   9    4   15 1
  10    5    6 ar
  11    5   28 1
  12    6    7 1
  13    7    8 1
  14    8    9 ar
  15    8   13 ar
  16    9   10 ar
  17    9   29 1
  18   10   11 ar
  19   11   12 ar
  20   11   30 1
  21   12   13 ar
  22   13   31 1
  23   15   16 am
  24   15   17 2
  25   16   18 1
  26   16   32 1
  27   18   19 ar
  28   18   23 ar
  29   19   20 ar
  30   19   33 1
  31   20   21 ar
  32   20   34 1
  33   21   22 ar
  34   21   35 1
  35   22   23 ar
  36   22   24 1
  37   24   25 1
  38   25   36 1
  39   25   37 1
  40   25   38 1

#	End of record

