#	Name: ASD01811309
#	Creating user name:	WinNT
#	Creation time:	15. 06. 2019 19:26

#	Modifying user name:	WinNT
#	Modification time:	15. 06. 2019 19:26

#	Program:	/corina/corina34_cracker 3.40 0067  02.08.2006

@<TRIPOS>MOLECULE
ASD01811309
  57   60    0    0    0
SMALL
NO_CHARGES


@<TRIPOS>ATOM
   1 C1             6.8964     8.7836    -0.7025 C.1     
   2 C2             5.5019     8.4849    -0.5733 C.ar    
   3 C3             5.0756     7.1597    -0.4647 C.ar    
   4 C4             3.7307     6.8792    -0.3405 C.ar    
   5 C5             2.8049     7.9073    -0.3239 C.ar    
   6 C6             3.2204     9.2227    -0.4315 C.ar    
   7 C7             4.5627     9.5179    -0.5495 C.ar    
   8 N8             8.0027     9.0205    -0.8050 N.1     
   9 N9            -1.3998     8.2830    -0.0082 N.am    
  10 C10           -0.6963     7.9109     1.2268 C.3     
  11 C11            0.7872     8.2609     1.0738 C.3     
  12 C12            1.3373     7.5930    -0.1885 C.3     
  13 C13            0.5878     8.1199    -1.4144 C.3     
  14 C14           -0.8980     7.7682    -1.2896 C.3     
  15 C15           -2.4881     9.0769     0.0340 C.2     
  16 C16           -3.0574     9.4823     1.3370 C.ar    
  17 C17           -3.5127    10.7871     1.5261 C.ar    
  18 C18           -4.0452    11.1598     2.7508 C.ar    
  19 C19           -4.1239    10.2340     3.7851 C.ar    
  20 C20           -3.6727     8.9413     3.5974 C.ar    
  21 C21           -3.1462     8.5590     2.3800 C.ar    
  22 O22           -3.0016     9.4597    -0.9991 O.2     
  23 C23           -4.7027    10.6417     5.1155 C.3     
  24 N24           -4.5025    12.4663     2.9458 N.pl3   
  25 N25           -3.7126    14.3445     0.1405 N.2     
  26 N26           -3.7553    13.2346     0.7872 N.2     
  27 C27           -4.2907    13.4280     1.9695 C.2     
  28 N28           -4.6002    14.7544     2.0565 N.pl3   
  29 C29           -4.2142    15.3039     0.8658 C.2     
  30 C30           -4.3436    16.7512     0.4665 C.3     
  31 C31           -2.9740    17.2891     0.0472 C.3     
  32 H32            5.7971     6.3562    -0.4782 H       
  33 H33            3.3995     5.8546    -0.2565 H       
  34 H34            2.4924    10.0204    -0.4182 H       
  35 H35            4.8861    10.5454    -0.6285 H       
  36 H36           -1.1171     8.4625     2.0675 H       
  37 H37           -0.8031     6.8400     1.3997 H       
  38 H38            0.8993     9.3420     0.9917 H       
  39 H39            1.3371     7.9027     1.9441 H       
  40 H40            1.2022     6.5138    -0.1166 H       
  41 H41            0.7018     9.2023    -1.4730 H       
  42 H42            0.9958     7.6612    -2.3151 H       
  43 H43           -1.0212     6.6857    -1.3219 H       
  44 H44           -1.4519     8.2258    -2.1093 H       
  45 H45           -3.4503    11.5048     0.7215 H       
  46 H46           -3.7364     8.2265     4.4045 H       
  47 H47           -2.7988     7.5466     2.2360 H       
  48 H48           -5.7775    10.4605     5.1149 H       
  49 H49           -4.2362    10.0577     5.9089 H       
  50 H50           -4.5129    11.7016     5.2848 H       
  51 H51           -4.9680    12.7002     3.7640 H       
  52 H52           -5.0096    15.2122     2.8073 H       
  53 H53           -5.0388    16.8369    -0.3686 H       
  54 H54           -4.7178    17.3292     1.3115 H       
  55 H55           -3.0676    18.3359    -0.2416 H       
  56 H56           -2.2788    17.2033     0.8824 H       
  57 H57           -2.5998    16.7111    -0.7978 H       
@<TRIPOS>BOND
   1    1    2 1
   2    1    8 3
   3    2    3 ar
   4    2    7 ar
   5    3    4 ar
   6    3   32 1
   7    4    5 ar
   8    4   33 1
   9    5    6 ar
  10    5   12 1
  11    6    7 ar
  12    6   34 1
  13    7   35 1
  14    9   10 1
  15    9   14 1
  16    9   15 am
  17   10   11 1
  18   10   36 1
  19   10   37 1
  20   11   12 1
  21   11   38 1
  22   11   39 1
  23   12   13 1
  24   12   40 1
  25   13   14 1
  26   13   41 1
  27   13   42 1
  28   14   43 1
  29   14   44 1
  30   15   16 1
  31   15   22 2
  32   16   17 ar
  33   16   21 ar
  34   17   18 ar
  35   17   45 1
  36   18   19 ar
  37   18   24 1
  38   19   20 ar
  39   19   23 1
  40   20   21 ar
  41   20   46 1
  42   21   47 1
  43   23   48 1
  44   23   49 1
  45   23   50 1
  46   24   27 1
  47   24   51 1
  48   25   26 1
  49   25   29 2
  50   26   27 2
  51   27   28 1
  52   28   29 1
  53   28   52 1
  54   29   30 1
  55   30   31 1
  56   30   53 1
  57   30   54 1
  58   31   55 1
  59   31   56 1
  60   31   57 1

#	End of record

