#	Name: ASD03332107
#	Creating user name:	WinNT
#	Creation time:	15. 06. 2019 20:40

#	Modifying user name:	WinNT
#	Modification time:	15. 06. 2019 20:40

#	Program:	/corina/corina34_cracker 3.40 0067  02.08.2006

@<TRIPOS>MOLECULE
ASD03332107
  64   67    0    0    0
SMALL
NO_CHARGES


@<TRIPOS>ATOM
   1 C1            -0.9954     3.0757    -0.7225 C.2     
   2 N2            -1.5582     1.8407    -0.8075 N.pl3   
   3 C3            -0.5493     0.9250    -0.7349 C.2     
   4 N4             0.5875     1.5654    -0.5913 N.2     
   5 C5             0.3463     2.8950    -0.5767 C.2     
   6 C6             1.3551     3.9591    -0.4304 C.2     
   7 O7             1.0126     5.1262    -0.4327 O.2     
   8 N8             2.6572     3.6391    -0.2940 N.am    
   9 C9             3.6601     4.6971    -0.1485 C.3     
  10 C10            5.0190     4.1807    -0.6255 C.3     
  11 C11            5.4045     2.9390     0.1812 C.3     
  12 C12            3.7567     5.1019     1.2999 C.2     
  13 O13            3.3709     4.3473     2.1675 O.2     
  14 C14           -2.9921     1.5668    -0.9354 C.3     
  15 C15           -3.5810     2.4720    -2.0219 C.3     
  16 C16           -4.0052     3.8033    -1.4101 C.3     
  17 N17           -3.1109     4.1899    -0.3172 N.3     
  18 C18           -1.7346     4.3865    -0.7963 C.3     
  19 C19           -0.7097    -0.5432    -0.8062 C.ar    
  20 C20           -1.6832    -1.1796    -0.0349 C.ar    
  21 C21           -1.8288    -2.5499    -0.1050 C.ar    
  22 C22           -1.0094    -3.2958    -0.9399 C.ar    
  23 C23           -0.0415    -2.6706    -1.7078 C.ar    
  24 C24            0.1091    -1.2979    -1.6503 C.ar    
  25 C25            4.4666     6.6524     3.0404 C.3     
  26 N26            4.2719     6.3024     1.6312 N.am    
  27 C27           -3.6062     5.3908     0.3686 C.3     
  28 F28            1.0536    -0.6885    -2.3997 F       
  29 F29           -1.1561    -4.6373    -1.0036 F       
  30 Cl30          -3.0395    -3.3424     0.8541 Cl      
  31 C31            6.7634     2.4226    -0.2958 C.3     
  32 C32            6.6791     2.0607    -1.7800 C.3     
  33 C33            6.2936     3.3023    -2.5866 C.3     
  34 C34            4.9347     3.8187    -2.1096 C.3     
  35 H35            2.9303     2.7084    -0.2921 H       
  36 H36            3.3682     5.5593    -0.7480 H       
  37 H37            5.7725     4.9552    -0.4826 H       
  38 H38            5.4646     3.1969     1.2385 H       
  39 H39            4.6510     2.1645     0.0383 H       
  40 H40           -3.1404     0.5227    -1.2112 H       
  41 H41           -3.4876     1.7678     0.0144 H       
  42 H42           -2.8302     2.6498    -2.7918 H       
  43 H43           -4.4483     1.9854    -2.4682 H       
  44 H44           -3.9827     4.5742    -2.1804 H       
  45 H45           -5.0212     3.7126    -1.0258 H       
  46 H46           -1.2325     5.1239    -0.1700 H       
  47 H47           -1.7545     4.7362    -1.8285 H       
  48 H48           -2.3214    -0.6005     0.6161 H       
  49 H49            0.5937    -3.2560    -2.3561 H       
  50 H50            4.8897     7.6544     3.1108 H       
  51 H51            3.5074     6.6258     3.5572 H       
  52 H52            5.1478     5.9372     3.5016 H       
  53 H53            4.5138     6.9347     0.9365 H       
  54 H54           -4.5957     5.1920     0.7804 H       
  55 H55           -2.9234     5.6560     1.1758 H       
  56 H56           -3.6672     6.2156    -0.3414 H       
  57 H57            7.5170     3.1971    -0.1530 H       
  58 H58            7.0381     1.5381     0.2788 H       
  59 H59            7.6473     1.6928    -2.1198 H       
  60 H60            5.9256     1.2862    -1.9229 H       
  61 H61            7.0472     4.0768    -2.4438 H       
  62 H62            6.2336     3.0445    -3.6440 H       
  63 H63            4.1811     3.0442    -2.2525 H       
  64 H64            4.6600     4.7033    -2.6843 H       
@<TRIPOS>BOND
   1    1    2 1
   2    1    5 2
   3    1   18 1
   4    2    3 1
   5    2   14 1
   6    3    4 2
   7    3   19 1
   8    4    5 1
   9    5    6 1
  10    6    7 2
  11    6    8 am
  12    8    9 1
  13    8   35 1
  14    9   10 1
  15    9   12 1
  16    9   36 1
  17   10   11 1
  18   10   34 1
  19   10   37 1
  20   11   31 1
  21   11   38 1
  22   11   39 1
  23   12   13 2
  24   12   26 am
  25   14   15 1
  26   14   40 1
  27   14   41 1
  28   15   16 1
  29   15   42 1
  30   15   43 1
  31   16   17 1
  32   16   44 1
  33   16   45 1
  34   17   18 1
  35   17   27 1
  36   18   46 1
  37   18   47 1
  38   19   20 ar
  39   19   24 ar
  40   20   21 ar
  41   20   48 1
  42   21   22 ar
  43   21   30 1
  44   22   23 ar
  45   22   29 1
  46   23   24 ar
  47   23   49 1
  48   24   28 1
  49   25   26 1
  50   25   50 1
  51   25   51 1
  52   25   52 1
  53   26   53 1
  54   27   54 1
  55   27   55 1
  56   27   56 1
  57   31   32 1
  58   31   57 1
  59   31   58 1
  60   32   33 1
  61   32   59 1
  62   32   60 1
  63   33   34 1
  64   33   61 1
  65   33   62 1
  66   34   63 1
  67   34   64 1

#	End of record

