#	Name: ASD00060062
#	Creating user name:	WinNT
#	Creation time:	15. 06. 2019 18:29

#	Modifying user name:	WinNT
#	Modification time:	15. 06. 2019 18:29

#	Program:	/corina/corina34_cracker 3.40 0067  02.08.2006

@<TRIPOS>MOLECULE
ASD00060062
  45   47    0    0    0
SMALL
NO_CHARGES


@<TRIPOS>ATOM
   1 Cl1           -3.5920     4.3546     2.2432 Cl      
   2 C2            -1.8753     4.0986     2.2742 C.ar    
   3 C3            -1.0689     4.9071     3.0557 C.ar    
   4 C4             0.2976     4.7029     3.0799 C.ar    
   5 C5             0.8592     3.6913     2.3230 C.ar    
   6 C6             0.0543     2.8836     1.5418 C.ar    
   7 C7            -1.3135     3.0827     1.5219 C.ar    
   8 C8            -2.1917     2.1978     0.6753 C.3     
   9 C9            -2.9627     1.2362     1.5804 C.3     
  10 C10           -2.0098     0.2379     2.1857 C.2     
  11 O11           -1.0710    -0.1681     1.5424 O.2     
  12 O12           -2.2039    -0.2003     3.4396 O.3     
  13 C13           -4.0104     0.5008     0.7361 C.3     
  14 C14           -5.0664     1.5133     0.2858 C.3     
  15 C15           -4.3968     2.7257    -0.2948 C.2     
  16 O16           -5.0588     3.4717    -0.9849 O.2     
  17 N17           -3.1135     3.0261    -0.0918 N.am    
  18 C18           -2.5979     4.2665    -0.6766 C.3     
  19 C19           -2.1830     4.0125    -2.1272 C.3     
  20 C20           -1.6526     5.2884    -2.7287 C.ar    
  21 C21           -0.3059     5.5871    -2.6386 C.ar    
  22 C22            0.1811     6.7572    -3.1901 C.ar    
  23 C23           -0.6794     7.6293    -3.8327 C.ar    
  24 Cl24          -0.0684     9.0989    -4.5261 Cl      
  25 C25           -2.0271     7.3296    -3.9229 C.ar    
  26 C26           -2.5121     6.1569    -3.3752 C.ar    
  27 H27           -1.5074     5.6978     3.6465 H       
  28 H28            0.9271     5.3338     3.6899 H       
  29 H29            1.9273     3.5323     2.3420 H       
  30 H30            0.4936     2.0938     0.9505 H       
  31 H31           -1.5696     1.6247    -0.0123 H       
  32 H32           -3.4569     1.7973     2.3735 H       
  33 H33           -3.5323     0.0565    -0.1368 H       
  34 H34           -4.4816    -0.2795     1.3339 H       
  35 H35           -1.5663    -0.8403     3.7846 H       
  36 H36           -5.7069     1.0571    -0.4689 H       
  37 H37           -5.6723     1.8095     1.1421 H       
  38 H38           -3.3742     5.0311    -0.6493 H       
  39 H39           -1.7337     4.6056    -0.1055 H       
  40 H40           -1.4067     3.2478    -2.1544 H       
  41 H41           -3.0473     3.6734    -2.6983 H       
  42 H42            0.3658     4.9063    -2.1370 H       
  43 H43           -3.5635     5.9210    -3.4489 H       
  44 H44            1.2332     6.9908    -3.1191 H       
  45 H45           -2.6993     8.0100    -4.4244 H       
@<TRIPOS>BOND
   1    1    2 1
   2    2    3 ar
   3    2    7 ar
   4    3    4 ar
   5    3   27 1
   6    4    5 ar
   7    4   28 1
   8    5    6 ar
   9    5   29 1
  10    6    7 ar
  11    6   30 1
  12    7    8 1
  13    8    9 1
  14    8   17 1
  15    8   31 1
  16    9   10 1
  17    9   13 1
  18    9   32 1
  19   10   11 2
  20   10   12 1
  21   12   35 1
  22   13   14 1
  23   13   33 1
  24   13   34 1
  25   14   15 1
  26   14   36 1
  27   14   37 1
  28   15   16 2
  29   15   17 am
  30   17   18 1
  31   18   19 1
  32   18   38 1
  33   18   39 1
  34   19   20 1
  35   19   40 1
  36   19   41 1
  37   20   21 ar
  38   20   26 ar
  39   21   22 ar
  40   21   42 1
  41   22   23 ar
  42   22   44 1
  43   23   24 1
  44   23   25 ar
  45   25   26 ar
  46   25   45 1
  47   26   43 1

#	End of record

