#	Name: ASD03090650
#	Creating user name:	WinNT
#	Creation time:	15. 06. 2019 20:29

#	Modifying user name:	WinNT
#	Modification time:	15. 06. 2019 20:29

#	Program:	/corina/corina34_cracker 3.40 0067  02.08.2006

@<TRIPOS>MOLECULE
ASD03090650
  34   35    0    0    0
SMALL
NO_CHARGES


@<TRIPOS>ATOM
   1 N1            -0.0162     1.3436     0.0094 N.am    
   2 C2            -0.2134     0.1138    -0.5057 C.2     
   3 O3             0.6754    -0.4340    -1.1287 O.2     
   4 N4            -1.3959    -0.5086    -0.3301 N.am    
   5 S5            -0.4411    -2.6615    -1.7551 S.3     
   6 C6            -1.5993    -1.7768    -0.8613 C.2     
   7 N7            -2.6945    -2.4613    -0.7506 N.2     
   8 C8            -2.7142    -3.6532    -1.3181 C.2     
   9 C9            -1.5820    -3.9914    -1.9375 C.2     
  10 C10           -3.9178    -4.5587    -1.2694 C.3     
  11 F11           -4.9806    -3.8890    -0.6536 F       
  12 F12           -4.2843    -4.9175    -2.5710 F       
  13 F13           -3.6059    -5.7101    -0.5385 F       
  14 C14            1.2491     1.9409    -0.0677 C.ar    
  15 C15            1.3597     3.3169    -0.2178 C.ar    
  16 C16            2.6067     3.9048    -0.2933 C.ar    
  17 C17            3.7491     3.1211    -0.2197 C.ar    
  18 C18            3.6394     1.7466    -0.0703 C.ar    
  19 C19            2.3926     1.1578     0.0116 C.ar    
  20 C20            0.1189     4.1683    -0.2987 C.3     
  21 O21            4.9769     3.7006    -0.2946 O.3     
  22 C22            6.1098     2.8336    -0.2119 C.3     
  23 H23           -0.7511     1.8168     0.4300 H       
  24 H24           -2.1050    -0.0716     0.1670 H       
  25 H25           -1.3974    -4.9183    -2.4601 H       
  26 H26            2.6928     4.9750    -0.4100 H       
  27 H27            4.5291     1.1369    -0.0134 H       
  28 H28            2.3074     0.0881     0.1327 H       
  29 H29           -0.1710     4.4842     0.7034 H       
  30 H30            0.3201     5.0463    -0.9125 H       
  31 H31           -0.6899     3.5902    -0.7456 H       
  32 H32            6.0934     2.3042     0.7408 H       
  33 H33            6.0759     2.1126    -1.0287 H       
  34 H34            7.0241     3.4224    -0.2847 H       
@<TRIPOS>BOND
   1    1    2 am
   2    1   14 1
   3    1   23 1
   4    2    3 2
   5    2    4 am
   6    4    6 1
   7    4   24 1
   8    5    6 1
   9    5    9 1
  10    6    7 2
  11    7    8 1
  12    8    9 2
  13    8   10 1
  14    9   25 1
  15   10   11 1
  16   10   12 1
  17   10   13 1
  18   14   15 ar
  19   14   19 ar
  20   15   16 ar
  21   15   20 1
  22   16   17 ar
  23   16   26 1
  24   17   18 ar
  25   17   21 1
  26   18   19 ar
  27   18   27 1
  28   19   28 1
  29   20   29 1
  30   20   30 1
  31   20   31 1
  32   21   22 1
  33   22   32 1
  34   22   33 1
  35   22   34 1

#	End of record

