#	Name: ASD01814725
#	Creating user name:	WinNT
#	Creation time:	15. 06. 2019 19:32

#	Modifying user name:	WinNT
#	Modification time:	15. 06. 2019 19:32

#	Program:	/corina/corina34_cracker 3.40 0067  02.08.2006

@<TRIPOS>MOLECULE
ASD01814725
  57   61    0    0    0
SMALL
NO_CHARGES


@<TRIPOS>ATOM
   1 C1            -0.0173     1.4248     0.0099 C.3     
   2 O2             0.0021    -0.0041     0.0020 O.3     
   3 C3             0.6048    -0.6061    -1.0540 C.ar    
   4 C4             0.6506    -1.9925    -1.1210 C.ar    
   5 C5             1.2684    -2.5944    -2.2037 C.ar    
   6 C6             1.8211    -1.7837    -3.1853 C.ar    
   7 C7             2.5033    -2.3943    -4.3822 C.3     
   8 C8             1.4949    -2.6043    -5.4823 C.ar    
   9 C9             0.8803    -3.8072    -5.6186 C.ar    
  10 C10           -0.0618    -4.0220    -6.6381 C.ar    
  11 C11           -0.7223    -5.3362    -6.7888 C.2     
  12 O12           -0.6460    -6.1651    -5.9029 O.2     
  13 N13           -1.4091    -5.6079    -7.9142 N.am    
  14 C14           -1.3792    -4.6899    -9.0515 C.3     
  15 C15           -1.4352    -3.2398    -8.5772 C.3     
  16 C16           -0.3968    -3.0009    -7.5136 C.ar    
  17 C17            0.2333    -1.7547    -7.3949 C.ar    
  18 C18           -0.0653    -0.6994    -8.2749 C.ar    
  19 C19            0.5652     0.4982    -8.1298 C.ar    
  20 C20            1.5054     0.6955    -7.1208 C.ar    
  21 C21            1.8208    -0.3035    -6.2509 C.ar    
  22 C22            1.1867    -1.5516    -6.3639 C.ar    
  23 C23           -2.1967    -6.8402    -8.0006 C.3     
  24 H24           -2.6821    -6.8952    -8.9750 H       
  25 C25           -1.2760    -8.0507    -7.8177 C.3     
  26 C26           -2.1181    -9.3291    -7.8307 C.3     
  27 O27           -3.1051    -9.2583    -6.7997 O.3     
  28 C28           -4.0237    -8.1733    -6.9449 C.3     
  29 C29           -3.2596    -6.8474    -6.8976 C.3     
  30 H30           -2.7770    -6.7409    -5.9261 H       
  31 O31           -4.1677    -5.7633    -7.1025 O.3     
  32 C32            1.7386    -0.4115    -3.0535 C.ar    
  33 N33            1.1384     0.1330    -2.0124 N.ar    
  34 H34            1.0053     1.8021     0.0021 H       
  35 H35           -0.5445     1.7859    -0.8732 H       
  36 H36           -0.5275     1.7763     0.9067 H       
  37 H37            0.2104    -2.5930    -0.3388 H       
  38 H38            1.3196    -3.6703    -2.2825 H       
  39 H39            3.2894    -1.7255    -4.7328 H       
  40 H40            2.9400    -3.3528    -4.1018 H       
  41 H41            1.1190    -4.6087    -4.9351 H       
  42 H42           -0.4602    -4.8477    -9.6160 H       
  43 H43           -2.2347    -4.8898    -9.6967 H       
  44 H44           -1.2472    -2.5762    -9.4212 H       
  45 H45           -2.4243    -3.0310    -8.1696 H       
  46 H46           -0.7912    -0.8386    -9.0624 H       
  47 H47            0.3335     1.3070    -8.8069 H       
  48 H48            1.9918     1.6552    -7.0274 H       
  49 H49            2.5523    -0.1354    -5.4744 H       
  50 H50           -0.5515    -8.0834    -8.6314 H       
  51 H51           -0.7522    -7.9692    -6.8653 H       
  52 H52           -2.6098    -9.4307    -8.7982 H       
  53 H53           -1.4734   -10.1909    -7.6582 H       
  54 H54           -4.5403    -8.2598    -7.9008 H       
  55 H55           -4.7517    -8.2025    -6.1341 H       
  56 H56           -4.8690    -5.7069    -6.4391 H       
  57 H57            2.1670     0.2238    -3.8146 H       
@<TRIPOS>BOND
   1    1    2 1
   2    1   34 1
   3    1   35 1
   4    1   36 1
   5    2    3 1
   6    3   33 ar
   7    3    4 ar
   8    4    5 ar
   9    4   37 1
  10    5    6 ar
  11    5   38 1
  12    6    7 1
  13    6   32 ar
  14    7    8 1
  15    7   39 1
  16    7   40 1
  17    8   22 ar
  18    8    9 ar
  19    9   10 ar
  20    9   41 1
  21   10   16 ar
  22   10   11 1
  23   11   12 2
  24   11   13 am
  25   13   14 1
  26   13   23 1
  27   14   15 1
  28   14   42 1
  29   14   43 1
  30   15   16 1
  31   15   44 1
  32   15   45 1
  33   16   17 ar
  34   17   22 ar
  35   17   18 ar
  36   18   19 ar
  37   18   46 1
  38   19   20 ar
  39   19   47 1
  40   20   21 ar
  41   20   48 1
  42   21   22 ar
  43   21   49 1
  44   23   24 1
  45   23   29 1
  46   23   25 1
  47   25   26 1
  48   25   50 1
  49   25   51 1
  50   26   27 1
  51   26   52 1
  52   26   53 1
  53   27   28 1
  54   28   29 1
  55   28   54 1
  56   28   55 1
  57   29   30 1
  58   29   31 1
  59   31   56 1
  60   32   33 ar
  61   32   57 1

#	End of record

