#	Name: ASD03330572
#	Creating user name:	WinNT
#	Creation time:	15. 06. 2019 20:37

#	Modifying user name:	WinNT
#	Modification time:	15. 06. 2019 20:37

#	Program:	/corina/corina34_cracker 3.40 0067  02.08.2006

@<TRIPOS>MOLECULE
ASD03330572
  60   62    0    0    0
SMALL
NO_CHARGES


@<TRIPOS>ATOM
   1 C1            -0.5189     1.8023    -0.6132 C.2     
   2 N2            -0.6424     0.4704    -0.8563 N.pl3   
   3 C3             0.8133     2.0723    -0.5302 C.2     
   4 N4             1.4819     0.9169    -0.7389 N.2     
   5 C5             0.6164    -0.0488    -0.9412 C.2     
   6 C6             0.9499    -1.4633    -1.2158 C.ar    
   7 C7             1.4176     3.3891    -0.2615 C.2     
   8 O8             0.7067     4.3608    -0.0898 O.2     
   9 C9             3.3590     4.8258     0.0613 C.3     
  10 N10            2.7582     3.5167    -0.2059 N.am    
  11 C11            3.4210     5.0597     1.5720 C.3     
  12 C12            4.2262     3.9370     2.2293 C.3     
  13 C13            4.0965     6.4035     1.8527 C.3     
  14 C14            2.0023     5.0725     2.1448 C.3     
  15 C15            4.7526     4.8652    -0.5108 C.2     
  16 N16            5.3518     6.0495    -0.7448 N.am    
  17 O17            5.3350     3.8311    -0.7605 O.2     
  18 C18            6.6653     6.0906    -1.3922 C.3     
  19 C19           -1.9086    -0.2561    -0.9851 C.3     
  20 C20           -2.8417     0.5222    -1.9179 C.3     
  21 C21           -3.6403     1.5432    -1.1139 C.3     
  22 N22           -2.8500     2.0720    -0.0006 N.3     
  23 C23           -1.6560     2.7822    -0.4827 C.3     
  24 C24           -3.6665     2.9387     0.8597 C.3     
  25 C25            2.2084    -3.1085    -2.4384 C.ar    
  26 C26            1.5756    -4.1136    -1.7309 C.ar    
  27 C27            0.6272    -3.8018    -0.7709 C.ar    
  28 C28            0.3114    -2.4835    -0.5101 C.ar    
  29 Cl29          -0.1614    -5.0719     0.1116 Cl      
  30 C30            1.9016    -1.7840    -2.1871 C.ar    
  31 F31            2.5202    -0.8024    -2.8792 F       
  32 H32            2.7537     5.6048    -0.4024 H       
  33 H33            3.3252     2.7417    -0.3428 H       
  34 H34            5.2369     3.9279     1.8212 H       
  35 H35            4.2704     4.1036     3.3056 H       
  36 H36            3.7450     2.9797     2.0293 H       
  37 H37            3.5073     7.2061     1.4091 H       
  38 H38            4.1667     6.5570     2.9296 H       
  39 H39            5.0967     6.4049     1.4195 H       
  40 H40            1.5211     4.1152     1.9448 H       
  41 H41            2.0465     5.2392     3.2211 H       
  42 H42            1.4286     5.8724     1.6766 H       
  43 H43            4.9133     6.8747    -0.4847 H       
  44 H44            6.9867     7.1269    -1.4967 H       
  45 H45            7.3874     5.5459    -0.7839 H       
  46 H46            6.5993     5.6296    -2.3777 H       
  47 H47           -1.7200    -1.2458    -1.4012 H       
  48 H48           -2.3734    -0.3548    -0.0041 H       
  49 H49           -2.2502     1.0387    -2.6739 H       
  50 H50           -3.5268    -0.1709    -2.4060 H       
  51 H51           -3.9313     2.3651    -1.7681 H       
  52 H52           -4.5377     1.0657    -0.7204 H       
  53 H53           -1.3846     3.5629     0.2279 H       
  54 H54           -1.8654     3.2291    -1.4545 H       
  55 H55           -4.5012     2.3664     1.2645 H       
  56 H56           -3.0550     3.3179     1.6785 H       
  57 H57           -4.0491     3.7749     0.2745 H       
  58 H58            2.9473    -3.3581    -3.1854 H       
  59 H59            1.8184    -5.1467    -1.9311 H       
  60 H60           -0.4282    -2.2423     0.2391 H       
@<TRIPOS>BOND
   1    1    2 1
   2    1    3 2
   3    1   23 1
   4    2   19 1
   5    2    5 1
   6    3    4 1
   7    3    7 1
   8    4    5 2
   9    5    6 1
  10    6   30 ar
  11    6   28 ar
  12    7    8 2
  13    7   10 am
  14    9   10 1
  15    9   11 1
  16    9   15 1
  17    9   32 1
  18   10   33 1
  19   11   12 1
  20   11   13 1
  21   11   14 1
  22   12   34 1
  23   12   35 1
  24   12   36 1
  25   13   37 1
  26   13   38 1
  27   13   39 1
  28   14   40 1
  29   14   41 1
  30   14   42 1
  31   15   16 am
  32   15   17 2
  33   16   18 1
  34   16   43 1
  35   18   44 1
  36   18   45 1
  37   18   46 1
  38   19   20 1
  39   19   47 1
  40   19   48 1
  41   20   21 1
  42   20   49 1
  43   20   50 1
  44   21   22 1
  45   21   51 1
  46   21   52 1
  47   22   23 1
  48   22   24 1
  49   23   53 1
  50   23   54 1
  51   24   55 1
  52   24   56 1
  53   24   57 1
  54   25   26 ar
  55   25   30 ar
  56   25   58 1
  57   26   27 ar
  58   26   59 1
  59   27   28 ar
  60   27   29 1
  61   28   60 1
  62   30   31 1

#	End of record

