#	Name: ASD03731570
#	Creating user name:	WinNT
#	Creation time:	15. 06. 2019 20:46

#	Modifying user name:	WinNT
#	Modification time:	15. 06. 2019 20:46

#	Program:	/corina/corina34_cracker 3.40 0067  02.08.2006

@<TRIPOS>MOLECULE
ASD03731570
  36   37    0    0    0
SMALL
NO_CHARGES


@<TRIPOS>ATOM
   1 C1            -0.4292     1.3980    -0.7673 C.2     
   2 C2            -0.3011    -0.0562    -0.5711 C.ar    
   3 C3             0.3381    -0.5582     0.5697 C.ar    
   4 C4             0.4546    -1.9212     0.7482 C.ar    
   5 C5            -0.0603    -2.7956    -0.2013 C.ar    
   6 C6            -0.6955    -2.3035    -1.3351 C.ar    
   7 C7            -0.8232    -0.9426    -1.5217 C.ar    
   8 O8             0.4390     2.0106    -1.3590 O.2     
   9 N9            -1.5111     2.0489    -0.2960 N.am    
  10 S10           -1.6551     3.6838    -0.5166 S.o2    
  11 O11           -2.8806     4.0169     0.1210 O.2     
  12 O12           -0.4202     4.2104    -0.0507 O.2     
  13 C13           -1.7965     3.8874    -2.3135 C.3     
  14 F14           -1.4458    -0.4657    -2.6217 F       
  15 F15            0.8399     0.2908     1.4931 F       
  16 O16            0.0580    -4.1353    -0.0207 O.3     
  17 C17            1.1493    -4.7554    -0.5418 C.ar    
  18 C18            2.1542    -4.0076    -1.1392 C.ar    
  19 C19            3.2626    -4.6397    -1.6678 C.ar    
  20 C20            3.3714    -6.0178    -1.6024 C.ar    
  21 C21            2.3707    -6.7651    -1.0072 C.ar    
  22 C22            1.2630    -6.1362    -0.4722 C.ar    
  23 C23            4.3542    -3.8282    -2.3167 C.3     
  24 F24            4.0210    -2.4705    -2.2623 F       
  25 F25            5.5590    -4.0402    -1.6380 F       
  26 F26            4.4958    -4.2204    -3.6520 F       
  27 Cl27           4.7651    -6.8099    -2.2685 Cl      
  28 H28            0.9472    -2.3094     1.6274 H       
  29 H29           -1.0934    -2.9879    -2.0697 H       
  30 H30           -2.2055     1.5597     0.1725 H       
  31 H31           -2.6742     3.3496    -2.6722 H       
  32 H32           -1.8965     4.9462    -2.5525 H       
  33 H33           -0.9040     3.4888    -2.7957 H       
  34 H34            2.0693    -2.9322    -1.1911 H       
  35 H35            2.4574    -7.8404    -0.9571 H       
  36 H36            0.4841    -6.7195    -0.0037 H       
@<TRIPOS>BOND
   1    1    2 1
   2    1    8 2
   3    1    9 am
   4    2    3 ar
   5    2    7 ar
   6    3    4 ar
   7    3   15 1
   8    4    5 ar
   9    4   28 1
  10    5    6 ar
  11    5   16 1
  12    6    7 ar
  13    6   29 1
  14    7   14 1
  15    9   10 am
  16    9   30 1
  17   10   11 2
  18   10   12 2
  19   10   13 1
  20   13   31 1
  21   13   32 1
  22   13   33 1
  23   16   17 1
  24   17   18 ar
  25   17   22 ar
  26   18   19 ar
  27   18   34 1
  28   19   20 ar
  29   19   23 1
  30   20   21 ar
  31   20   27 1
  32   21   22 ar
  33   21   35 1
  34   22   36 1
  35   23   24 1
  36   23   25 1
  37   23   26 1

#	End of record

