#	Name: ASD01152490
#	Creating user name:	WinNT
#	Creation time:	15. 06. 2019 19:05

#	Modifying user name:	WinNT
#	Modification time:	15. 06. 2019 19:05

#	Program:	/corina/corina34_cracker 3.40 0067  02.08.2006

@<TRIPOS>MOLECULE
ASD01152490
  52   55    0    0    0
SMALL
NO_CHARGES


@<TRIPOS>ATOM
   1 C1            -0.3500     1.3556    -0.0017 C.2     
   2 N2            -0.3386     0.0564    -0.1371 N.2     
   3 N3            -1.3668    -0.7401     0.3665 N.am    
   4 C4            -2.5198    -0.2264     0.8263 C.2     
   5 C5            -2.7983     1.2530     0.7015 C.3     
   6 C6            -1.4653     1.9778     0.7282 C.2     
   7 C7            -3.5205     1.5349    -0.6175 C.3     
   8 O8            -1.3288     3.0284     1.3206 O.2     
   9 C9            -1.1908    -2.1281     0.3935 C.ar    
  10 O10           -3.3408    -0.9537     1.3434 O.2     
  11 C11           -3.9036     2.9910    -0.6793 C.ar    
  12 C12           -2.1830    -2.9638    -0.0989 C.ar    
  13 C13           -0.0196    -2.6709     0.9084 C.ar    
  14 C14            0.1550    -4.0408     0.9349 C.ar    
  15 C15           -0.8335    -4.8759     0.4500 C.ar    
  16 C16           -2.0045    -4.3396    -0.0703 C.ar    
  17 C17           -3.0374     3.8954    -1.2216 C.ar    
  18 C18           -5.1380     3.3993    -0.1886 C.ar    
  19 C19           -5.5088     4.7132    -0.2330 C.ar    
  20 C20           -4.6432     5.6599    -0.7757 C.ar    
  21 C21           -3.3942     5.2474    -1.2785 C.ar    
  22 N22           -4.7150     7.0157    -0.9616 N.pl3   
  23 N23           -3.5333     7.4576    -1.5655 N.2     
  24 C24           -2.7317     6.4514    -1.7693 C.2     
  25 C25           -5.8479     7.8660    -0.5878 C.3     
  26 O26            0.6503     2.1157    -0.5193 O.3     
  27 C27            1.6972     1.4289    -1.2079 C.3     
  28 N28           -3.0026    -5.1858    -0.5659 N.am    
  29 C29           -3.2337    -6.3743     0.0262 C.2     
  30 O30           -2.5218    -6.7480     0.9343 O.2     
  31 C31           -4.3766    -7.2389    -0.4400 C.3     
  32 H32           -3.4134     1.5846     1.5381 H       
  33 H33           -2.8599     1.2973    -1.4514 H       
  34 H34           -4.4184     0.9200    -0.6787 H       
  35 H35           -3.0924    -2.5444    -0.5033 H       
  36 H36            0.7550    -2.0209     1.2878 H       
  37 H37            1.0662    -4.4601     1.3352 H       
  38 H38           -0.6937    -5.9466     0.4719 H       
  39 H39           -2.0815     3.5695    -1.6045 H       
  40 H40           -5.8125     2.6687     0.2327 H       
  41 H41           -6.4711     5.0172     0.1514 H       
  42 H42           -1.7513     6.4998    -2.2195 H       
  43 H43           -5.7110     8.2262     0.4318 H       
  44 H44           -5.9049     8.7154    -1.2686 H       
  45 H45           -6.7708     7.2892    -0.6486 H       
  46 H46            2.4288     2.1511    -1.5700 H       
  47 H47            2.1829     0.7302    -0.5266 H       
  48 H48            1.2785     0.8813    -2.0523 H       
  49 H49           -3.5282    -4.9170    -1.3355 H       
  50 H50           -4.8986    -6.7413    -1.2573 H       
  51 H51           -3.9895    -8.1972    -0.7862 H       
  52 H52           -5.0683    -7.4034     0.3862 H       
@<TRIPOS>BOND
   1    1    2 2
   2    1   26 1
   3    1    6 1
   4    2    3 1
   5    3    4 am
   6    3    9 1
   7    4    5 1
   8    4   10 2
   9    5    6 1
  10    5    7 1
  11    5   32 1
  12    6    8 2
  13    7   11 1
  14    7   33 1
  15    7   34 1
  16    9   12 ar
  17    9   13 ar
  18   11   17 ar
  19   11   18 ar
  20   12   16 ar
  21   12   35 1
  22   13   14 ar
  23   13   36 1
  24   14   15 ar
  25   14   37 1
  26   15   16 ar
  27   15   38 1
  28   16   28 1
  29   17   21 ar
  30   17   39 1
  31   18   19 ar
  32   18   40 1
  33   19   20 ar
  34   19   41 1
  35   20   21 ar
  36   20   22 1
  37   21   24 1
  38   22   23 1
  39   22   25 1
  40   23   24 2
  41   24   42 1
  42   25   43 1
  43   25   44 1
  44   25   45 1
  45   26   27 1
  46   27   46 1
  47   27   47 1
  48   27   48 1
  49   28   29 am
  50   28   49 1
  51   29   30 2
  52   29   31 1
  53   31   50 1
  54   31   51 1
  55   31   52 1

#	End of record

