#	Name: ASD01916944
#	Creating user name:	WinNT
#	Creation time:	15. 06. 2019 20:08

#	Modifying user name:	WinNT
#	Modification time:	15. 06. 2019 20:08

#	Program:	/corina/corina34_cracker 3.40 0067  02.08.2006

@<TRIPOS>MOLECULE
ASD01916944
  46   49    0    0    0
SMALL
NO_CHARGES


@<TRIPOS>ATOM
   1 C1            -0.0158     1.4200    -0.0045 C.ar    
   2 C2             0.0072     0.0060    -0.0146 C.ar    
   3 C3            -1.1854    -0.7156     0.0267 C.ar    
   4 C4            -2.3777    -0.0512     0.0637 C.ar    
   5 C5            -2.4143     1.3445     0.0611 C.ar    
   6 C6            -1.2424     2.0816     0.0274 C.ar    
   7 N7             1.1589     2.0884    -0.0155 N.2     
   8 C8             2.3202     1.4836    -0.0622 C.2     
   9 N9             2.4232     0.1359    -0.1816 N.am    
  10 C10            1.3156    -0.6493    -0.0837 C.2     
  11 N11           -3.6432     2.0028     0.0921 N.am    
  12 O12            1.4097    -1.8628    -0.0539 O.2     
  13 C13           -3.7673     3.1669     0.7599 C.2     
  14 C14            3.5346     2.3638     0.0759 C.3     
  15 C15            4.7905     1.7145    -0.4621 C.3     
  16 C16            4.8999     0.2581    -0.0599 C.3     
  17 C17            3.6833    -0.5425    -0.4657 C.3     
  18 C18           -5.0378     3.9256     0.6957 C.ar    
  19 C19           -5.1877     5.1354     1.3809 C.ar    
  20 C20           -6.3900     5.8100     1.2934 C.ar    
  21 N21           -7.3861     5.3279     0.5773 N.ar    
  22 C22           -7.2869     4.1917    -0.0836 C.ar    
  23 C23           -6.1187     3.4549    -0.0563 C.ar    
  24 C24            6.1371    -0.3485    -0.7248 C.3     
  25 C25            5.0647     0.1741     1.4589 C.3     
  26 O26           -2.8370     3.5941     1.4145 O.2     
  27 H27           -1.1660    -1.7954     0.0291 H       
  28 H28           -3.3011    -0.6105     0.0950 H       
  29 H29           -1.2785     3.1610     0.0263 H       
  30 H30           -4.4087     1.6229    -0.3668 H       
  31 H31            3.3590     3.2931    -0.4659 H       
  32 H32            3.6826     2.5962     1.1304 H       
  33 H33            4.7851     1.7815    -1.5501 H       
  34 H34            5.6582     2.2529    -0.0807 H       
  35 H35            3.6965    -1.4931     0.0675 H       
  36 H36            3.7384    -0.7440    -1.5355 H       
  37 H37           -4.3759     5.5361     1.9698 H       
  38 H38           -6.5156     6.7449     1.8192 H       
  39 H39           -8.1288     3.8343    -0.6579 H       
  40 H40           -6.0444     2.5248    -0.6001 H       
  41 H41            7.0262     0.1913    -0.3989 H       
  42 H42            6.2246    -1.3974    -0.4412 H       
  43 H43            6.0420    -0.2717    -1.8079 H       
  44 H44            4.1996     0.6262     1.9438 H       
  45 H45            5.1443    -0.8709     1.7585 H       
  46 H46            5.9678     0.7071     1.7564 H       
@<TRIPOS>BOND
   1    1    2 ar
   2    1    7 1
   3    1    6 ar
   4    2    3 ar
   5    2   10 1
   6    3    4 ar
   7    3   27 1
   8    4    5 ar
   9    4   28 1
  10    5    6 ar
  11    5   11 1
  12    6   29 1
  13    7    8 2
  14    8    9 1
  15    8   14 1
  16    9   10 am
  17    9   17 1
  18   10   12 2
  19   11   13 am
  20   11   30 1
  21   13   18 1
  22   13   26 2
  23   14   15 1
  24   14   31 1
  25   14   32 1
  26   15   16 1
  27   15   33 1
  28   15   34 1
  29   16   17 1
  30   16   24 1
  31   16   25 1
  32   17   35 1
  33   17   36 1
  34   18   19 ar
  35   18   23 ar
  36   19   20 ar
  37   19   37 1
  38   20   21 ar
  39   20   38 1
  40   21   22 ar
  41   22   23 ar
  42   22   39 1
  43   23   40 1
  44   24   41 1
  45   24   42 1
  46   24   43 1
  47   25   44 1
  48   25   45 1
  49   25   46 1

#	End of record

