#	Name: ASD03740127
#	Creating user name:	WinNT
#	Creation time:	15. 06. 2019 20:46

#	Modifying user name:	WinNT
#	Modification time:	15. 06. 2019 20:46

#	Program:	/corina/corina34_cracker 3.40 0067  02.08.2006

@<TRIPOS>MOLECULE
ASD03740127
  31   33    0    0    0
SMALL
NO_CHARGES


@<TRIPOS>ATOM
   1 C1            -0.0169     1.3935     0.0097 C.ar    
   2 C2             0.0021    -0.0041     0.0020 C.ar    
   3 C3            -1.1406    -0.7345     0.0090 C.ar    
   4 C4            -2.3892    -0.0762     0.0245 C.ar    
   5 C5            -2.4091     1.3948     0.0326 C.ar    
   6 C6            -1.1813     2.0910     0.0302 C.ar    
   7 N7            -3.6485    -0.4744     0.0339 N.2     
   8 N8            -4.4809     0.6506     0.0477 N.pl3   
   9 C9            -3.7402     1.7675     0.0468 C.2     
  10 Cl10           1.4876     2.2597    -0.0000 Cl      
  11 C11            1.3286    -0.7189    -0.0150 C.3     
  12 C12           -5.9454     0.6129     0.0602 C.3     
  13 C13           -6.4367    -0.2085    -1.1038 C.ar    
  14 C14           -6.6308    -1.5692    -0.9562 C.ar    
  15 C15           -7.0814    -2.3231    -2.0234 C.ar    
  16 C16           -7.3382    -1.7156    -3.2396 C.ar    
  17 C17           -7.1438    -0.3538    -3.3867 C.ar    
  18 C18           -6.6986     0.4000    -2.3172 C.ar    
  19 Cl19          -7.9037    -2.6620    -4.5806 Cl      
  20 H20           -1.0956    -1.8135     0.0024 H       
  21 H21           -1.1684     3.1709     0.0360 H       
  22 H22           -4.1167     2.7798     0.0557 H       
  23 H23            1.6587    -0.8967     1.0085 H       
  24 H24            1.2212    -1.6719    -0.5329 H       
  25 H25            2.0655    -0.1050    -0.5329 H       
  26 H26           -6.2893     0.1645     0.9922 H       
  27 H27           -6.3357     1.6274    -0.0206 H       
  28 H28           -6.4299    -2.0434    -0.0068 H       
  29 H29           -7.2327    -3.3862    -1.9080 H       
  30 H30           -7.3442     0.1210    -4.3359 H       
  31 H31           -6.5468     1.4631    -2.4319 H       
@<TRIPOS>BOND
   1    1    2 ar
   2    1   10 1
   3    1    6 ar
   4    2    3 ar
   5    2   11 1
   6    3    4 ar
   7    3   20 1
   8    4    5 ar
   9    4    7 2
  10    5    6 ar
  11    5    9 2
  12    6   21 1
  13    7    8 1
  14    8    9 1
  15    8   12 1
  16    9   22 1
  17   11   23 1
  18   11   24 1
  19   11   25 1
  20   12   13 1
  21   12   26 1
  22   12   27 1
  23   13   14 ar
  24   13   18 ar
  25   14   15 ar
  26   14   28 1
  27   15   16 ar
  28   15   29 1
  29   16   17 ar
  30   16   19 1
  31   17   18 ar
  32   17   30 1
  33   18   31 1

#	End of record

