#	Name: ASD04490007
#	Creating user name:	WinNT
#	Creation time:	15. 06. 2019 20:49

#	Modifying user name:	WinNT
#	Modification time:	15. 06. 2019 20:49

#	Program:	/corina/corina34_cracker 3.40 0067  02.08.2006

@<TRIPOS>MOLECULE
ASD04490007
  23   24    0    0    0
SMALL
NO_CHARGES


@<TRIPOS>ATOM
   1 C1            -0.0168     1.3909     0.0097 C.ar    
   2 C2             0.0021    -0.0041     0.0020 C.ar    
   3 C3            -1.1845    -0.7121     0.0095 C.ar    
   4 C4            -2.3952    -0.0265     0.0248 C.ar    
   5 C5            -2.4171     1.3754     0.0325 C.ar    
   6 C6            -1.2170     2.0760     0.0306 C.ar    
   7 C7            -3.8128    -0.4423     0.0361 C.2     
   8 C8            -4.5353     0.7114     0.0492 C.2     
   9 O9            -3.7097     1.7643     0.0470 O.3     
  10 C10           -6.0402     0.7908     0.0632 C.3     
  11 C11           -4.3345    -1.8156     0.0333 C.2     
  12 O12           -4.5402    -2.3899     1.0849 O.2     
  13 O13           -4.5851    -2.4391    -1.1355 O.3     
  14 O14            1.1896    -0.6677    -0.0133 O.3     
  15 O15            1.1546     2.0818     0.0022 O.3     
  16 H16           -1.1722    -1.7920     0.0033 H       
  17 H17           -1.2222     3.1560     0.0368 H       
  18 H18           -6.3937     0.8041     1.0942 H       
  19 H19           -6.3606     1.7016    -0.4426 H       
  20 H20           -6.4546    -0.0758    -0.4519 H       
  21 H21           -4.9275    -3.3421    -1.0868 H       
  22 H22            1.5416    -0.8643     0.8656 H       
  23 H23            1.4850     2.2864    -0.8833 H       
@<TRIPOS>BOND
   1    1    2 ar
   2    1   15 1
   3    1    6 ar
   4    2    3 ar
   5    2   14 1
   6    3    4 ar
   7    3   16 1
   8    4    5 ar
   9    4    7 1
  10    5    6 ar
  11    5    9 1
  12    6   17 1
  13    7    8 2
  14    7   11 1
  15    8    9 1
  16    8   10 1
  17   10   18 1
  18   10   19 1
  19   10   20 1
  20   11   12 2
  21   11   13 1
  22   13   21 1
  23   14   22 1
  24   15   23 1

#	End of record

