#	Name: ASD03430652
#	Creating user name:	WinNT
#	Creation time:	15. 06. 2019 20:41

#	Modifying user name:	WinNT
#	Modification time:	15. 06. 2019 20:41

#	Program:	/corina/corina34_cracker 3.40 0067  02.08.2006

@<TRIPOS>MOLECULE
ASD03430652
  34   38    0    0    0
SMALL
NO_CHARGES


@<TRIPOS>ATOM
   1 C1            -0.0168     1.3883     0.0097 C.ar    
   2 C2             0.0021    -0.0041     0.0020 C.ar    
   3 C3             1.1968    -0.6798    -0.0139 C.ar    
   4 C4             2.4087     0.0160    -0.0102 C.ar    
   5 C5             2.3977     1.3978    -0.0069 C.ar    
   6 C6             1.1827     2.1085     0.0021 C.ar    
   7 O7             3.4677    -0.8452     0.0019 O.3     
   8 C8             1.5434    -2.1442    -0.0514 C.3     
   9 C9             3.0291    -2.1452    -0.4359 C.3     
  10 C10            0.4130    -3.8586     0.9990 C.ar    
  11 C11            1.3042    -2.8217     1.2651 C.ar    
  12 C12            0.7091    -2.9000    -1.0457 C.2     
  13 N13            0.0845    -3.8770    -0.3586 N.am    
  14 O14            0.6155    -2.6750    -2.2338 O.2     
  15 C15            1.7688    -2.6082     2.5432 C.ar    
  16 C16            1.3527    -3.4275     3.5780 C.ar    
  17 C17            0.4691    -4.4604     3.3252 C.ar    
  18 C18            0.0000    -4.6782     2.0460 C.ar    
  19 S19           -1.3463     2.5426     0.0214 S.3     
  20 C20           -0.2460     3.8469     0.0171 C.2     
  21 N21            0.9663     3.4384     0.0052 N.2     
  22 C22           -0.6517     5.2983     0.0201 C.3     
  23 H23           -0.9271    -0.5546     0.0090 H       
  24 H24            3.3324     1.9389    -0.0110 H       
  25 H25            3.1495    -2.2513    -1.5141 H       
  26 H26            3.5651    -2.9329     0.0936 H       
  27 H27           -0.5221    -4.5186    -0.7603 H       
  28 H28            2.4589    -1.8008     2.7386 H       
  29 H29            1.7176    -3.2607     4.5807 H       
  30 H30            0.1447    -5.1000     4.1327 H       
  31 H31           -0.6904    -5.4867     1.8564 H       
  32 H32           -0.7445     5.6474     1.0485 H       
  33 H33            0.1052     5.8881    -0.4969 H       
  34 H34           -1.6090     5.4090    -0.4890 H       
@<TRIPOS>BOND
   1    1    2 ar
   2    1    6 ar
   3    1   19 1
   4    2    3 ar
   5    2   23 1
   6    3    4 ar
   7    3    8 1
   8    4    5 ar
   9    4    7 1
  10    5    6 ar
  11    5   24 1
  12    6   21 1
  13    7    9 1
  14    8    9 1
  15    8   11 1
  16    8   12 1
  17    9   25 1
  18    9   26 1
  19   10   11 ar
  20   10   13 1
  21   10   18 ar
  22   11   15 ar
  23   12   13 am
  24   12   14 2
  25   13   27 1
  26   15   16 ar
  27   15   28 1
  28   16   17 ar
  29   16   29 1
  30   17   18 ar
  31   17   30 1
  32   18   31 1
  33   19   20 1
  34   20   21 2
  35   20   22 1
  36   22   32 1
  37   22   33 1
  38   22   34 1

#	End of record

