#	Name: ASD01148161
#	Creating user name:	WinNT
#	Creation time:	15. 06. 2019 19:02

#	Modifying user name:	WinNT
#	Modification time:	15. 06. 2019 19:02

#	Program:	/corina/corina34_cracker 3.40 0067  02.08.2006

@<TRIPOS>MOLECULE
ASD01148161
  25   25    0    0    0
SMALL
NO_CHARGES


@<TRIPOS>ATOM
   1 C1            -0.0184     1.5028     0.0103 C.2     
   2 C2             0.0021    -0.0041     0.0020 C.3     
   3 C3             1.4295    -0.4870    -0.0142 C.2     
   4 O4             1.0197     2.1211     0.0037 O.2     
   5 O5            -1.1898     2.1580     0.0194 O.3     
   6 O6             2.3400     0.3132    -0.0186 O.2     
   7 C7             1.0000    -4.2202    -0.0306 C.ar    
   8 C8             0.6822    -2.8746    -0.0199 C.ar    
   9 C9             1.7186    -1.9329    -0.0247 C.ar    
  10 C10            3.0392    -2.4043    -0.0403 C.ar    
  11 C11            3.2630    -3.7686    -0.0502 C.ar    
  12 N12            2.2569    -4.6200    -0.0452 N.ar    
  13 Cl13           4.3722    -1.2922    -0.0477 Cl      
  14 Cl14          -0.2732    -5.4002    -0.0175 Cl      
  15 C15           -1.1335     3.6089     0.0270 C.3     
  16 C16           -2.5551     4.1744     0.0369 C.3     
  17 H17           -0.4983    -0.3791     0.8948 H       
  18 H18           -0.5153    -0.3696    -0.8850 H       
  19 H19           -0.3493    -2.5548    -0.0083 H       
  20 H20            4.2764    -4.1420    -0.0627 H       
  21 H21           -0.6017     3.9472     0.9164 H       
  22 H22           -0.6102     3.9569    -0.8636 H       
  23 H23           -2.5128     5.2636     0.0426 H       
  24 H24           -3.0869     3.8361    -0.8525 H       
  25 H25           -3.0784     3.8265     0.9275 H       
@<TRIPOS>BOND
   1    1    2 1
   2    1    4 2
   3    1    5 1
   4    2    3 1
   5    2   17 1
   6    2   18 1
   7    3    6 2
   8    3    9 1
   9    5   15 1
  10    7    8 ar
  11    7   12 ar
  12    7   14 1
  13    8    9 ar
  14    8   19 1
  15    9   10 ar
  16   10   11 ar
  17   10   13 1
  18   11   12 ar
  19   11   20 1
  20   15   16 1
  21   15   21 1
  22   15   22 1
  23   16   23 1
  24   16   24 1
  25   16   25 1

#	End of record

