#	Name: ASD01811551
#	Creating user name:	WinNT
#	Creation time:	15. 06. 2019 19:26

#	Modifying user name:	WinNT
#	Modification time:	15. 06. 2019 19:26

#	Program:	/corina/corina34_cracker 3.40 0067  02.08.2006

@<TRIPOS>MOLECULE
ASD01811551
  71   75    0    0    0
SMALL
NO_CHARGES


@<TRIPOS>ATOM
   1 C1             0.3476     1.7578     0.4284 C.3     
   2 C2             0.1623     0.2815     0.6779 C.2     
   3 C3             1.1619    -0.6285     0.6273 C.2     
   4 C4             2.6015    -0.2945     0.3226 C.3     
   5 C5             2.6594     1.0858    -0.3431 C.3     
   6 N6             1.7987     2.0176     0.4011 N.am    
   7 C7            -0.6483    -1.7057     1.1097 C.2     
   8 N8            -0.9826    -0.3864     0.9846 N.pl3   
   9 N9             0.6439    -1.8293     0.8906 N.2     
  10 C10            2.3226     3.0820     1.0407 C.2     
  11 O11            3.5282     3.2205     1.1030 O.2     
  12 O12            1.5101     3.9918     1.6106 O.3     
  13 C13            4.1004     1.5997    -0.3299 C.3     
  14 C14           -1.5800    -2.8073     1.4363 C.ar    
  15 C15           -1.1412    -4.1322     1.3884 C.ar    
  16 C16           -2.0094    -5.1617     1.6929 C.ar    
  17 C17           -3.3161    -4.8893     2.0470 C.ar    
  18 C18           -3.7677    -3.5689     2.0988 C.ar    
  19 C19           -2.8950    -2.5250     1.7977 C.ar    
  20 C20           -4.2567    -6.0193     2.3777 C.3     
  21 C21            0.2830    -4.4391     1.0030 C.3     
  22 C22           -5.1674    -3.2788     2.4772 C.2     
  23 O23           -5.6334    -3.7554     3.4936 O.2     
  24 N24           -5.9264    -2.4860     1.6950 N.am    
  25 C25           -7.2789    -2.0944     2.1146 C.3     
  26 C26           -8.2647    -2.4530     0.9982 C.3     
  27 C27           -7.8021    -1.8102    -0.3113 C.3     
  28 C28           -6.4236    -2.3562    -0.6904 C.3     
  29 C29           -5.4148    -1.9919     0.4094 C.3     
  30 C30           -8.7878    -2.1327    -1.4046 C.ar    
  31 C31           -9.4449    -1.1087    -2.0634 C.ar    
  32 C32          -10.3485    -1.3968    -3.0652 C.ar    
  33 C33          -10.5990    -2.7254    -3.4141 C.ar    
  34 C34           -9.9320    -3.7539    -2.7454 C.ar    
  35 C35           -9.0274    -3.4513    -1.7489 C.ar    
  36 C36          -11.5361    -3.0319    -4.4527 C.1     
  37 N37          -12.2794    -3.2751    -5.2765 N.1     
  38 C38            2.1437     5.1123     2.2824 C.3     
  39 H39           -0.0963     2.0309    -0.5289 H       
  40 H40           -0.1169     2.3309     1.2309 H       
  41 H41            3.1763    -0.2778     1.2486 H       
  42 H42            3.0151    -1.0433    -0.3528 H       
  43 H43            2.3087     1.0088    -1.3722 H       
  44 H44           -1.8658    -0.0006     1.0939 H       
  45 H45            4.7125     0.9818    -0.9868 H       
  46 H46            4.1212     2.6322    -0.6788 H       
  47 H47            4.4942     1.5513     0.6854 H       
  48 H48           -1.6652    -6.1846     1.6536 H       
  49 H49           -3.2380    -1.5018     1.8406 H       
  50 H50           -4.2746    -6.1731     3.4567 H       
  51 H51           -5.2593    -5.7712     2.0294 H       
  52 H52           -3.9165    -6.9308     1.8863 H       
  53 H53            0.9106    -4.4294     1.8940 H       
  54 H54            0.3292    -5.4232     0.5366 H       
  55 H55            0.6392    -3.6865     0.2994 H       
  56 H56           -7.5481    -2.6291     3.0255 H       
  57 H57           -7.3083    -1.0201     2.2968 H       
  58 H58           -8.3011    -3.5358     0.8790 H       
  59 H59           -9.2566    -2.0813     1.2554 H       
  60 H60           -7.7421    -0.7293    -0.1840 H       
  61 H61           -6.4773    -3.4399    -0.7937 H       
  62 H62           -6.1049    -1.9156    -1.6351 H       
  63 H63           -5.2952    -0.9094     0.4554 H       
  64 H64           -4.4536    -2.4589     0.1949 H       
  65 H65           -9.2502    -0.0816    -1.7925 H       
  66 H66          -10.8613    -0.5966    -3.5781 H       
  67 H67          -10.1211    -4.7836    -3.0103 H       
  68 H68           -8.5077    -4.2456    -1.2336 H       
  69 H69            1.3778     5.7681     2.6964 H       
  70 H70            2.7785     4.7417     3.0872 H       
  71 H71            2.7506     5.6684     1.5678 H       
@<TRIPOS>BOND
   1    1    2 1
   2    1    6 1
   3    1   39 1
   4    1   40 1
   5    2    3 2
   6    2    8 1
   7    3    4 1
   8    3    9 1
   9    4    5 1
  10    4   41 1
  11    4   42 1
  12    5    6 1
  13    5   13 1
  14    5   43 1
  15    6   10 am
  16    7    8 1
  17    7    9 2
  18    7   14 1
  19    8   44 1
  20   10   11 2
  21   10   12 1
  22   12   38 1
  23   13   45 1
  24   13   46 1
  25   13   47 1
  26   14   15 ar
  27   14   19 ar
  28   15   16 ar
  29   15   21 1
  30   16   17 ar
  31   16   48 1
  32   17   18 ar
  33   17   20 1
  34   18   19 ar
  35   18   22 1
  36   19   49 1
  37   20   50 1
  38   20   51 1
  39   20   52 1
  40   21   53 1
  41   21   54 1
  42   21   55 1
  43   22   23 2
  44   22   24 am
  45   24   25 1
  46   24   29 1
  47   25   26 1
  48   25   56 1
  49   25   57 1
  50   26   27 1
  51   26   58 1
  52   26   59 1
  53   27   28 1
  54   27   30 1
  55   27   60 1
  56   28   29 1
  57   28   61 1
  58   28   62 1
  59   29   63 1
  60   29   64 1
  61   30   31 ar
  62   30   35 ar
  63   31   32 ar
  64   31   65 1
  65   32   33 ar
  66   32   66 1
  67   33   34 ar
  68   33   36 1
  69   34   35 ar
  70   34   67 1
  71   35   68 1
  72   36   37 3
  73   38   69 1
  74   38   70 1
  75   38   71 1

#	End of record

