#	Name: ASD03092795
#	Creating user name:	WinNT
#	Creation time:	15. 06. 2019 20:33

#	Modifying user name:	WinNT
#	Modification time:	15. 06. 2019 20:33

#	Program:	/corina/corina34_cracker 3.40 0067  02.08.2006

@<TRIPOS>MOLECULE
ASD03092795
  53   55    0    0    0
SMALL
NO_CHARGES


@<TRIPOS>ATOM
   1 C1            -0.0403     1.5108     0.0386 C.3     
   2 C2             0.0186    -0.0181     0.0374 C.3     
   3 C3             0.6652    -0.4948    -1.2376 C.2     
   4 O4             1.0425     0.3107    -2.0658 O.2     
   5 C5             0.8318    -1.8713    -1.4691 C.2     
   6 S6             0.3320    -3.1516    -0.3729 S.3     
   7 C7             0.9277    -4.3848    -1.4743 C.2     
   8 C8             1.4609    -3.8024    -2.5855 C.2     
   9 C9             2.0545    -4.6027    -3.7161 C.3     
  10 C10            1.4092    -2.4267    -2.5976 C.2     
  11 C11            1.9307    -1.6115    -3.7191 C.ar    
  12 C12            1.3304    -1.6842    -4.9760 C.ar    
  13 C13            1.8208    -0.9224    -6.0166 C.ar    
  14 C14            2.9059    -0.0880    -5.8155 C.ar    
  15 C15            3.5056    -0.0116    -4.5711 C.ar    
  16 C16            3.0205    -0.7638    -3.5209 C.ar    
  17 S17            3.5270     0.8807    -7.1498 S.o2    
  18 N18            2.7210     2.3271    -7.1221 N.am    
  19 O19            4.8826     1.1709    -6.8379 O.2     
  20 O20            3.1280     0.2218    -8.3438 O.2     
  21 C21            0.8608    -5.8397    -1.2312 C.ar    
  22 C22            1.2638    -6.3630    -0.0000 C.ar    
  23 C23            1.2002    -7.7206     0.2235 C.ar    
  24 C24            0.7353    -8.5704    -0.7749 C.ar    
  25 C25            0.3337    -8.0526    -2.0020 C.ar    
  26 C26            0.3890    -6.6954    -2.2297 C.ar    
  27 N27            0.6722    -9.9440    -0.5454 N.pl3   
  28 C28            1.0952   -10.4911     0.7461 C.3     
  29 C29            0.1829   -10.8405    -1.5957 C.3     
  30 H30            0.9703     1.9134    -0.0289 H       
  31 H31           -0.6253     1.8525    -0.8153 H       
  32 H32           -0.5080     1.8557     0.9608 H       
  33 H33            0.6037    -0.3598     0.8913 H       
  34 H34           -0.9920    -0.4207     0.1049 H       
  35 H35            1.2687    -4.8740    -4.4210 H       
  36 H36            2.8100    -4.0053    -4.2265 H       
  37 H37            2.5143    -5.5075    -3.3185 H       
  38 H38            0.4837    -2.3357    -5.1344 H       
  39 H39            1.3568    -0.9778    -6.9903 H       
  40 H40            4.3526     0.6413    -4.4202 H       
  41 H41            3.4866    -0.6999    -2.5488 H       
  42 H42            2.0482     2.4945    -6.4437 H       
  43 H43            2.9216     3.0069    -7.7844 H       
  44 H44            1.6251    -5.7038     0.7754 H       
  45 H45            1.5119    -8.1258     1.1749 H       
  46 H46           -0.0264    -8.7151    -2.7752 H       
  47 H47            0.0722    -6.2934    -3.1808 H       
  48 H48            0.2423   -10.5230     1.4241 H       
  49 H49            1.4841   -11.4994     0.6038 H       
  50 H50            1.8739    -9.8580     1.1714 H       
  51 H51            1.0194   -11.1666    -2.2139 H       
  52 H52           -0.2923   -11.7091    -1.1398 H       
  53 H53           -0.5424   -10.3128    -2.2150 H       
@<TRIPOS>BOND
   1    1    2 1
   2    1   30 1
   3    1   31 1
   4    1   32 1
   5    2    3 1
   6    2   33 1
   7    2   34 1
   8    3    4 2
   9    3    5 1
  10    5   10 2
  11    5    6 1
  12    6    7 1
  13    7    8 2
  14    7   21 1
  15    8    9 1
  16    8   10 1
  17    9   35 1
  18    9   36 1
  19    9   37 1
  20   10   11 1
  21   11   16 ar
  22   11   12 ar
  23   12   13 ar
  24   12   38 1
  25   13   14 ar
  26   13   39 1
  27   14   15 ar
  28   14   17 1
  29   15   16 ar
  30   15   40 1
  31   16   41 1
  32   17   18 am
  33   17   19 2
  34   17   20 2
  35   18   42 1
  36   18   43 1
  37   21   26 ar
  38   21   22 ar
  39   22   23 ar
  40   22   44 1
  41   23   24 ar
  42   23   45 1
  43   24   25 ar
  44   24   27 1
  45   25   26 ar
  46   25   46 1
  47   26   47 1
  48   27   28 1
  49   27   29 1
  50   28   48 1
  51   28   49 1
  52   28   50 1
  53   29   51 1
  54   29   52 1
  55   29   53 1

#	End of record

