#	Name: ASD01720093
#	Creating user name:	WinNT
#	Creation time:	15. 06. 2019 19:23

#	Modifying user name:	WinNT
#	Modification time:	15. 06. 2019 19:23

#	Program:	/corina/corina34_cracker 3.40 0067  02.08.2006

@<TRIPOS>MOLECULE
ASD01720093
  61   64    0    0    0
SMALL
NO_CHARGES


@<TRIPOS>ATOM
   1 C1            -0.0525     1.3662    -0.0158 C.ar    
   2 C2            -0.0522    -0.0025    -0.0232 C.ar    
   3 C3             1.1420    -0.6904     0.1847 C.ar    
   4 N4             2.2788    -0.0398     0.3896 N.ar    
   5 C5             2.3269     1.2811     0.4053 C.ar    
   6 C6             1.1607     2.0358     0.2028 C.ar    
   7 N7             1.1410    -2.0748     0.1775 N.3     
   8 O8             3.5074     1.9095     0.6184 O.3     
   9 C9             4.6558     1.0828     0.8178 C.3     
  10 C10            5.8862     1.9643     1.0411 C.3     
  11 C11            7.1158     1.0792     1.2546 C.3     
  12 C12            7.4074     0.2939    -0.0257 C.3     
  13 C13            8.3211     1.9556     1.6011 C.3     
  14 C14            1.2101     3.5068     0.2191 C.2     
  15 O15            2.2672     4.0778     0.4095 O.2     
  16 C16            2.5064    -2.6094     0.4164 C.3     
  17 C17            2.4638    -4.0484    -0.1412 C.3     
  18 C18            1.3233    -4.0421    -1.1799 C.3     
  19 C19            0.7728    -2.6000    -1.1625 C.3     
  20 C20            2.7712    -4.2562    -1.6255 C.3     
  21 C21            3.1647    -5.6427    -2.0658 C.2     
  22 O22            3.2273    -6.5383    -1.2573 O.2     
  23 O23            3.4455    -5.8826    -3.3563 O.3     
  24 N24            0.0841     4.2211     0.0230 N.am    
  25 C25            0.1118     5.6149     0.1353 C.ar    
  26 C26            1.2535     7.7012    -0.1710 C.ar    
  27 C27            1.2297     6.3247    -0.2829 C.ar    
  28 C28           -0.9813     6.2927     0.6602 C.ar    
  29 C29           -0.9510     7.6689     0.7693 C.ar    
  30 C30            0.1658     8.3725     0.3563 C.ar    
  31 C31           -2.1363     8.4051     1.3385 C.3     
  32 O32           -1.9855     8.5283     2.7542 O.3     
  33 H33           -0.9661     1.9187    -0.1792 H       
  34 H34           -0.9709    -0.5456    -0.1885 H       
  35 H35            4.4998     0.4488     1.6906 H       
  36 H36            4.8110     0.4583    -0.0619 H       
  37 H37            6.0421     2.5984     0.1683 H       
  38 H38            5.7309     2.5889     1.9208 H       
  39 H39            6.9253     0.3837     2.0720 H       
  40 H40            8.2833    -0.3367     0.1264 H       
  41 H41            6.5487    -0.3305    -0.2725 H       
  42 H42            7.5979     0.9893    -0.8431 H       
  43 H43            8.1133     2.5150     2.5132 H       
  44 H44            9.1971     1.3250     1.7532 H       
  45 H45            8.5116     2.6510     0.7837 H       
  46 H46            3.2464    -2.0156    -0.1201 H       
  47 H47            2.7285    -2.6216     1.4834 H       
  48 H48            2.5920    -4.8680     0.5658 H       
  49 H49            0.6025    -4.8571    -1.2461 H       
  50 H50           -0.3104    -2.6050    -1.2843 H       
  51 H51            1.2415    -2.0046    -1.9461 H       
  52 H52            3.2594    -3.4390    -2.1566 H       
  53 H53            3.6930    -6.7875    -3.5908 H       
  54 H54           -0.7454     3.7686    -0.1960 H       
  55 H55            2.1228     8.2538    -0.4958 H       
  56 H56            2.0796     5.8010    -0.6949 H       
  57 H57           -1.8540     5.7440     0.9822 H       
  58 H58            0.1870     9.4488     0.4427 H       
  59 H59           -2.1964     9.3976     0.8919 H       
  60 H60           -3.0486     7.8512     1.1171 H       
  61 H61           -2.7140     8.9930     3.1884 H       
@<TRIPOS>BOND
   1    1    2 ar
   2    1    6 ar
   3    1   33 1
   4    2    3 ar
   5    2   34 1
   6    3    4 ar
   7    3    7 1
   8    4    5 ar
   9    5    6 ar
  10    5    8 1
  11    6   14 1
  12    7   16 1
  13    7   19 1
  14    8    9 1
  15    9   10 1
  16    9   35 1
  17    9   36 1
  18   10   11 1
  19   10   37 1
  20   10   38 1
  21   11   12 1
  22   11   13 1
  23   11   39 1
  24   12   40 1
  25   12   41 1
  26   12   42 1
  27   13   43 1
  28   13   44 1
  29   13   45 1
  30   14   15 2
  31   14   24 am
  32   16   17 1
  33   16   46 1
  34   16   47 1
  35   17   18 1
  36   17   20 1
  37   17   48 1
  38   18   19 1
  39   18   20 1
  40   18   49 1
  41   19   50 1
  42   19   51 1
  43   20   21 1
  44   20   52 1
  45   21   22 2
  46   21   23 1
  47   23   53 1
  48   24   25 1
  49   24   54 1
  50   25   28 ar
  51   25   27 ar
  52   26   27 ar
  53   26   30 ar
  54   26   55 1
  55   27   56 1
  56   28   29 ar
  57   28   57 1
  58   29   30 ar
  59   29   31 1
  60   30   58 1
  61   31   32 1
  62   31   59 1
  63   31   60 1
  64   32   61 1

#	End of record

