#	Name: ASD09116488
#	Creating user name:	WinNT
#	Creation time:	15. 06. 2019 21:21

#	Modifying user name:	WinNT
#	Modification time:	15. 06. 2019 21:21

#	Program:	/corina/corina34_cracker 3.40 0067  02.08.2006

@<TRIPOS>MOLECULE
ASD09116488
  66   72    0    0    0
SMALL
NO_CHARGES


@<TRIPOS>ATOM
   1 N1            -0.0300     1.4188     0.1477 N.2     
   2 N2            -0.0215     0.0201     0.2716 N.pl3   
   3 C3             1.2221     1.8081     0.1182 C.2     
   4 N4             2.0150     0.7346     0.2164 N.2     
   5 C5             1.2795    -0.3525     0.3098 C.2     
   6 N6             1.7516    -1.6460     0.4262 N.pl3   
   7 C7            -1.1343    -0.8199     0.3423 C.ar    
   8 N8             1.6572     3.1285     0.0026 N.pl3   
   9 C9             3.0192     3.4261     0.0967 C.ar    
  10 C10            3.5417     4.5193    -0.5783 C.ar    
  11 C11            3.8552     2.6315     0.8716 C.ar    
  12 C12            5.1975     2.9342     0.9608 C.ar    
  13 C13            5.7187     4.0268     0.2826 C.ar    
  14 C14            4.8919     4.8184    -0.4866 C.ar    
  15 N15           -1.0327    -2.0867    -0.0315 N.ar    
  16 N16           -2.0286    -2.8988     0.0045 N.ar    
  17 C17           -3.2242    -2.5124     0.4198 C.ar    
  18 C18           -3.4208    -1.1984     0.8541 C.ar    
  19 C19           -2.3537    -0.3260     0.8126 C.ar    
  20 C20           -4.3863    -3.4310     0.4112 C.ar    
  21 C21           -5.5826    -3.0001    -0.1645 C.ar    
  22 C22           -5.6445    -1.6420    -0.8080 C.3     
  23 C23           -5.7433    -0.5345     0.2375 C.3     
  24 C24           -4.7629    -0.7811     1.3810 C.3     
  25 C25           -4.3003    -4.7023     0.9679 C.ar    
  26 C26           -5.4089    -5.5266     0.9644 C.ar    
  27 C27           -6.5985    -5.0880     0.4117 C.ar    
  28 C28           -6.6858    -3.8264    -0.1511 C.ar    
  29 C29            7.1903     4.3221     0.4216 C.3     
  30 C30            7.6408     5.2680    -0.6917 C.3     
  31 N31            6.7216     6.4165    -0.7300 N.3     
  32 C32            5.4147     6.0073    -1.2497 C.3     
  33 C33            7.2850     7.5154    -1.5256 C.3     
  34 C34            6.2128     8.5831    -1.7518 C.3     
  35 C35            6.6362     9.8700    -2.4629 C.3     
  36 C36            5.7676     8.8432    -3.1923 C.3     
  37 H37            2.7068    -1.8138     0.4445 H       
  38 H38            1.1278    -2.3861     0.4896 H       
  39 H39            1.0142     3.8400    -0.1431 H       
  40 H40            2.8932     5.1403    -1.1785 H       
  41 H41            3.4551     1.7803     1.4023 H       
  42 H42            5.8476     2.3168     1.5630 H       
  43 H43           -2.4587     0.7027     1.1242 H       
  44 H44           -4.7458    -1.4892    -1.4055 H       
  45 H45           -6.5169    -1.5958    -1.4599 H       
  46 H46           -5.5146     0.4227    -0.2311 H       
  47 H47           -6.7579    -0.5054     0.6347 H       
  48 H48           -5.1550    -1.5674     2.0260 H       
  49 H49           -4.6512     0.1349     1.9612 H       
  50 H50           -3.3714    -5.0437     1.4004 H       
  51 H51           -5.3465    -6.5155     1.3940 H       
  52 H52           -7.4643    -5.7335     0.4195 H       
  53 H53           -7.6179    -3.4897    -0.5802 H       
  54 H54            7.3760     4.7879     1.3894 H       
  55 H55            7.7539     3.3914     0.3557 H       
  56 H56            8.6536     5.6163    -0.4888 H       
  57 H57            7.6148     4.7462    -1.6483 H       
  58 H58            5.5126     5.7422    -2.3025 H       
  59 H59            4.7133     6.8361    -1.1538 H       
  60 H60            8.1284     7.9546    -0.9927 H       
  61 H61            7.6236     7.1309    -2.4877 H       
  62 H62            5.4588     8.6654    -0.9690 H       
  63 H63            6.1605    10.7988    -2.1481 H       
  64 H64            7.6786     9.9559    -2.7695 H       
  65 H65            6.2385     8.2536    -3.9789 H       
  66 H66            4.7204     9.0965    -3.3575 H       
@<TRIPOS>BOND
   1    1    2 1
   2    1    3 2
   3    2    7 1
   4    2    5 1
   5    3    4 1
   6    3    8 1
   7    4    5 2
   8    5    6 1
   9    6   37 1
  10    6   38 1
  11    7   15 ar
  12    7   19 ar
  13    8    9 1
  14    8   39 1
  15    9   10 ar
  16    9   11 ar
  17   10   14 ar
  18   10   40 1
  19   11   12 ar
  20   11   41 1
  21   12   13 ar
  22   12   42 1
  23   13   14 ar
  24   13   29 1
  25   14   32 1
  26   15   16 ar
  27   16   17 ar
  28   17   18 ar
  29   17   20 1
  30   18   19 ar
  31   18   24 1
  32   19   43 1
  33   20   21 ar
  34   20   25 ar
  35   21   22 1
  36   21   28 ar
  37   22   23 1
  38   22   44 1
  39   22   45 1
  40   23   24 1
  41   23   46 1
  42   23   47 1
  43   24   48 1
  44   24   49 1
  45   25   26 ar
  46   25   50 1
  47   26   27 ar
  48   26   51 1
  49   27   28 ar
  50   27   52 1
  51   28   53 1
  52   29   30 1
  53   29   54 1
  54   29   55 1
  55   30   31 1
  56   30   56 1
  57   30   57 1
  58   31   32 1
  59   31   33 1
  60   32   58 1
  61   32   59 1
  62   33   34 1
  63   33   60 1
  64   33   61 1
  65   34   35 1
  66   34   36 1
  67   34   62 1
  68   35   36 1
  69   35   63 1
  70   35   64 1
  71   36   65 1
  72   36   66 1

#	End of record

