#	Name: ASD03240002
#	Creating user name:	WinNT
#	Creation time:	15. 06. 2019 20:34

#	Modifying user name:	WinNT
#	Modification time:	15. 06. 2019 20:34

#	Program:	/corina/corina34_cracker 3.40 0067  02.08.2006

@<TRIPOS>MOLECULE
ASD03240002
  68   74    0    0    0
SMALL
NO_CHARGES


@<TRIPOS>ATOM
   1 C1            -0.0619     1.0690    -0.0350 C.ar    
   2 C2             0.0868    -0.2981    -0.2592 C.ar    
   3 C3             1.3222    -0.8657    -0.3309 C.ar    
   4 C4             2.4676    -0.0655    -0.1776 C.ar    
   5 C5             2.3161     1.3267     0.0502 C.ar    
   6 C6             1.0240     1.8758     0.1183 C.ar    
   7 N7             3.6918    -0.6002    -0.2435 N.ar    
   8 C8             4.7532     0.1708    -0.0962 C.ar    
   9 C9             4.6019     1.5614     0.1313 C.ar    
  10 N10            3.3981     2.0990     0.1981 N.ar    
  11 C11            5.8008     2.4160     0.2949 C.ar    
  12 C12            6.1095    -0.4208    -0.1686 C.ar    
  13 C13            7.1078     0.2062    -0.9137 C.ar    
  14 C14            8.3692    -0.3497    -0.9774 C.ar    
  15 C15            8.6443    -1.5264    -0.3040 C.ar    
  16 C16            7.6580    -2.1532     0.4364 C.ar    
  17 C17            6.3945    -1.6037     0.5127 C.ar    
  18 C18            5.8839     3.6400    -0.3684 C.ar    
  19 C19            7.0030     4.4319    -0.2117 C.ar    
  20 C20            8.0414     4.0137     0.6012 C.ar    
  21 C21            7.9647     2.8006     1.2618 C.ar    
  22 C22            6.8483     2.0026     1.1175 C.ar    
  23 C23            9.2612     4.8829     0.7673 C.3     
  24 N24            9.0631     5.7928     1.9035 N.3     
  25 C25           10.3110     6.4872     2.2454 C.3     
  26 C26           10.1050     7.3123     3.5177 C.3     
  27 C27            8.9816     8.3265     3.2862 C.3     
  28 C28            7.7061     7.5807     2.8845 C.3     
  29 C29            7.9815     6.7478     1.6305 C.3     
  30 N30            8.7404     9.0799     4.5193 N.am    
  31 C31            8.8588    10.4598     4.6679 C.ar    
  32 C32            8.5397    10.7515     5.9955 C.ar    
  33 N33            8.2372     9.5399     6.6125 N.am    
  34 C34            8.3608     8.5571     5.7006 C.2     
  35 C35            9.2060    11.4840     3.8001 C.ar    
  36 C36            9.2346    12.7884     4.2527 C.ar    
  37 C37            8.9182    13.0777     5.5691 C.ar    
  38 C38            8.5712    12.0643     6.4408 C.ar    
  39 O39            8.1672     7.3748     5.9139 O.2     
  40 H40           -1.0529     1.4956     0.0135 H       
  41 H41           -0.7907    -0.9165    -0.3775 H       
  42 H42            1.4218    -1.9270    -0.5045 H       
  43 H43            0.8931     2.9337     0.2915 H       
  44 H44            6.8941     1.1246    -1.4401 H       
  45 H45            9.1431     0.1347    -1.5543 H       
  46 H46            9.6331    -1.9577    -0.3568 H       
  47 H47            7.8786    -3.0720     0.9594 H       
  48 H48            5.6254    -2.0937     1.0913 H       
  49 H49            5.0742     3.9672    -1.0038 H       
  50 H50            7.0685     5.3799    -0.7248 H       
  51 H51            8.7787     2.4793     1.8947 H       
  52 H52            6.7895     1.0559     1.6340 H       
  53 H53           10.1325     4.2547     0.9525 H       
  54 H54            9.4191     5.4647    -0.1408 H       
  55 H55           11.1006     5.7544     2.4115 H       
  56 H56           10.5952     7.1477     1.4262 H       
  57 H57            9.8342     6.6507     4.3406 H       
  58 H58           11.0269     7.8399     3.7625 H       
  59 H59            9.2687     9.0126     2.4894 H       
  60 H60            7.3975     6.9234     3.6974 H       
  61 H61            6.9140     8.3001     2.6768 H       
  62 H62            8.2767     7.4071     0.8142 H       
  63 H63            7.0793     6.2044     1.3500 H       
  64 H64            7.9780     9.4244     7.5400 H       
  65 H65            9.4537    11.2621     2.7726 H       
  66 H66            9.5054    13.5862     3.5770 H       
  67 H67            8.9428    14.1003     5.9157 H       
  68 H68            8.3247    12.2939     7.4669 H       
@<TRIPOS>BOND
   1    1    2 ar
   2    1    6 ar
   3    1   40 1
   4    2    3 ar
   5    2   41 1
   6    3    4 ar
   7    3   42 1
   8    4    5 ar
   9    4    7 ar
  10    5    6 ar
  11    5   10 ar
  12    6   43 1
  13    7    8 ar
  14    8    9 ar
  15    8   12 1
  16    9   10 ar
  17    9   11 1
  18   11   18 ar
  19   11   22 ar
  20   12   13 ar
  21   12   17 ar
  22   13   14 ar
  23   13   44 1
  24   14   15 ar
  25   14   45 1
  26   15   16 ar
  27   15   46 1
  28   16   17 ar
  29   16   47 1
  30   17   48 1
  31   18   19 ar
  32   18   49 1
  33   19   20 ar
  34   19   50 1
  35   20   21 ar
  36   20   23 1
  37   21   22 ar
  38   21   51 1
  39   22   52 1
  40   23   24 1
  41   23   53 1
  42   23   54 1
  43   24   25 1
  44   24   29 1
  45   25   26 1
  46   25   55 1
  47   25   56 1
  48   26   27 1
  49   26   57 1
  50   26   58 1
  51   27   28 1
  52   27   30 1
  53   27   59 1
  54   28   29 1
  55   28   60 1
  56   28   61 1
  57   29   62 1
  58   29   63 1
  59   30   31 1
  60   30   34 am
  61   31   32 ar
  62   31   35 ar
  63   32   33 1
  64   32   38 ar
  65   33   34 am
  66   33   64 1
  67   34   39 2
  68   35   36 ar
  69   35   65 1
  70   36   37 ar
  71   36   66 1
  72   37   38 ar
  73   37   67 1
  74   38   68 1

#	End of record

