#	Name: ASD01811057
#	Creating user name:	WinNT
#	Creation time:	15. 06. 2019 19:25

#	Modifying user name:	WinNT
#	Modification time:	15. 06. 2019 19:25

#	Program:	/corina/corina34_cracker 3.40 0067  02.08.2006

@<TRIPOS>MOLECULE
ASD01811057
  44   47    0    0    0
SMALL
NO_CHARGES


@<TRIPOS>ATOM
   1 C1            -0.0169     1.3924     0.0097 C.ar    
   2 C2             0.0021    -0.0041     0.0020 C.ar    
   3 C3            -1.2587    -0.8118    -0.0056 C.3     
   4 C4            -2.4651    -0.0257     0.3937 C.2     
   5 C5            -2.5144     1.3151     0.4096 C.2     
   6 C6            -1.3152     2.0998     0.0378 C.2     
   7 C7            -1.4781    -1.3667    -1.4144 C.3     
   8 C8            -2.6751    -2.2823    -1.4128 C.ar    
   9 C9            -3.9345    -1.7704    -1.6677 C.ar    
  10 C10           -5.0342    -2.6045    -1.6676 C.ar    
  11 C11           -4.8739    -3.9644    -1.4100 C.ar    
  12 C12           -3.6029    -4.4747    -1.1538 C.ar    
  13 C13           -2.5094    -3.6325    -1.1620 C.ar    
  14 C14           -6.0526    -4.8659    -1.4079 C.ar    
  15 C15           -5.8923    -6.2258    -1.1503 C.ar    
  16 C16           -6.9920    -7.0598    -1.1497 C.ar    
  17 C17           -8.2515    -6.5479    -1.4047 C.ar    
  18 C18           -8.4163    -5.1988    -1.6615 C.ar    
  19 C19           -7.3244    -4.3546    -1.6580 C.ar    
  20 O20           -1.3948     3.2820    -0.2340 O.2     
  21 C21           -3.7603     2.0055     0.7959 C.2     
  22 O22           -4.7433     1.3597     1.1003 O.2     
  23 O23           -3.8075     3.3518     0.8111 O.3     
  24 C24            1.1843     2.0980     0.0020 C.ar    
  25 N25            2.3327     1.4505    -0.0066 N.ar    
  26 C26            2.3862     0.1319    -0.0074 C.ar    
  27 C27            1.2354    -0.6357    -0.0031 C.ar    
  28 H28           -1.1424    -1.6485     0.6832 H       
  29 H29           -3.3509    -0.5696     0.6869 H       
  30 H30           -1.6519    -0.5428    -2.1065 H       
  31 H31           -0.5950    -1.9238    -1.7271 H       
  32 H32           -4.0577    -0.7161    -1.8669 H       
  33 H33           -6.0172    -2.2037    -1.8664 H       
  34 H34           -3.4730    -5.5280    -0.9535 H       
  35 H35           -1.5238    -4.0269    -0.9636 H       
  36 H36           -4.9093    -6.6267    -0.9518 H       
  37 H37           -6.8690    -8.1140    -0.9502 H       
  38 H38           -9.1093    -7.2041    -1.4036 H       
  39 H39           -9.4019    -4.8044    -1.8603 H       
  40 H40           -7.4542    -3.3013    -1.8583 H       
  41 H41           -4.6453     3.7588     1.0709 H       
  42 H42            1.1747     3.1780     0.0027 H       
  43 H43            3.3486    -0.3581    -0.0115 H       
  44 H44            1.2975    -1.7139    -0.0041 H       
@<TRIPOS>BOND
   1    1    2 ar
   2    1   24 ar
   3    1    6 1
   4    2    3 1
   5    2   27 ar
   6    3    4 1
   7    3    7 1
   8    3   28 1
   9    4    5 2
  10    4   29 1
  11    5    6 1
  12    5   21 1
  13    6   20 2
  14    7    8 1
  15    7   30 1
  16    7   31 1
  17    8    9 ar
  18    8   13 ar
  19    9   10 ar
  20    9   32 1
  21   10   11 ar
  22   10   33 1
  23   11   12 ar
  24   11   14 1
  25   12   13 ar
  26   12   34 1
  27   13   35 1
  28   14   15 ar
  29   14   19 ar
  30   15   16 ar
  31   15   36 1
  32   16   17 ar
  33   16   37 1
  34   17   18 ar
  35   17   38 1
  36   18   19 ar
  37   18   39 1
  38   19   40 1
  39   21   22 2
  40   21   23 1
  41   23   41 1
  42   24   25 ar
  43   24   42 1
  44   25   26 ar
  45   26   27 ar
  46   26   43 1
  47   27   44 1

#	End of record

