#	Name: ASD06660050
#	Creating user name:	WinNT
#	Creation time:	15. 06. 2019 21:07

#	Modifying user name:	WinNT
#	Modification time:	15. 06. 2019 21:07

#	Program:	/corina/corina34_cracker 3.40 0067  02.08.2006

@<TRIPOS>MOLECULE
ASD06660050
  75   78    0    0    0
SMALL
NO_CHARGES


@<TRIPOS>ATOM
   1 C1            -0.7001     1.2418     0.9351 C.2     
   2 C2            -0.3574    -0.1485     0.4654 C.3     
   3 C3            -1.2600    -0.5264    -0.7108 C.3     
   4 O4             0.1396     2.1104     0.9153 O.2     
   5 O5            -1.9398     1.5166     1.3704 O.3     
   6 C6            -1.0181    -1.9654    -1.0874 C.ar    
   7 C7            -1.7318    -2.9714    -0.4622 C.ar    
   8 C8            -1.5126    -4.2912    -0.8050 C.ar    
   9 C9            -0.5740    -4.6075    -1.7790 C.ar    
  10 C10            0.1411    -3.5944    -2.4050 C.ar    
  11 C11           -0.0871    -2.2764    -2.0614 C.ar    
  12 N12           -0.3496    -5.9413    -2.1278 N.3     
  13 C13            0.6778    -6.0465    -3.1717 C.3     
  14 C14            0.7934    -7.5018    -3.6307 C.3     
  15 C15            1.1637    -8.3816    -2.4335 C.3     
  16 C16            0.1032    -8.2166    -1.3415 C.3     
  17 C17            0.0076    -6.7405    -0.9488 C.3     
  18 C18            1.2203    -9.8238    -2.8668 C.2     
  19 N19            1.5296   -10.7843    -1.9732 N.am    
  20 O20            0.9876   -10.1202    -4.0192 O.2     
  21 C21            1.5815   -12.1065    -2.3704 C.2     
  22 N22            1.3298   -12.3966    -3.6029 N.2     
  23 C23            1.3420   -13.7543    -4.1352 C.3     
  24 C24            2.1558   -14.6805    -3.2287 C.3     
  25 C25            1.6832   -14.4808    -1.7807 C.3     
  26 N26            1.9048   -13.0656    -1.4407 N.pl3   
  27 N27            1.0435    -0.1882     0.0384 N.am    
  28 C28            2.0265    -0.2561     0.9579 C.2     
  29 C29            3.4403    -0.2038     0.5328 C.ar    
  30 C30            4.1665    -1.3853     0.3671 C.ar    
  31 C31            5.4852    -1.3308    -0.0296 C.ar    
  32 C32            6.0914    -0.1057    -0.2637 C.ar    
  33 C33            5.3754     1.0701    -0.1002 C.ar    
  34 C34            4.0538     1.0268     0.2898 C.ar    
  35 O35            1.7498    -0.3603     2.1371 O.2     
  36 C36            3.2747     2.3054     0.4601 C.3     
  37 F37            7.3845    -0.0578    -0.6519 F       
  38 C38            3.5093    -2.7173     0.6220 C.3     
  39 C39            2.8046    -3.1903    -0.6511 C.3     
  40 H40           -0.5087    -0.8553     1.2813 H       
  41 H41           -2.3036    -0.3963    -0.4244 H       
  42 H42           -1.0343     0.1150    -1.5627 H       
  43 H43           -2.1121     2.4225     1.6616 H       
  44 H44           -2.4611    -2.7248     0.2952 H       
  45 H45           -2.0701    -5.0764    -0.3161 H       
  46 H46            0.8715    -3.8370    -3.1627 H       
  47 H47            0.4652    -1.4880    -2.5511 H       
  48 H48            0.4002    -5.4194    -4.0190 H       
  49 H49            1.6363    -5.7142    -2.7728 H       
  50 H50           -0.1609    -7.8304    -4.0424 H       
  51 H51            1.5669    -7.5821    -4.3945 H       
  52 H52            2.1362    -8.0784    -2.0456 H       
  53 H53           -0.8619    -8.5565    -1.7172 H       
  54 H54            0.3836    -8.8077    -0.4696 H       
  55 H55            0.9692    -6.4051    -0.5603 H       
  56 H56           -0.7568    -6.6176    -0.1815 H       
  57 H57            1.7158   -10.5471    -1.0513 H       
  58 H58            0.3186   -14.1239    -4.2007 H       
  59 H59            1.7849   -13.7460    -5.1311 H       
  60 H60            1.9980   -15.7171    -3.5266 H       
  61 H61            3.2145   -14.4329    -3.3066 H       
  62 H62            0.6238   -14.7239    -1.6997 H       
  63 H63            2.2624   -15.1163    -1.1108 H       
  64 H64            2.2684   -12.8145    -0.5772 H       
  65 H65            1.2634    -0.1656    -0.9060 H       
  66 H66            6.0476    -2.2438    -0.1581 H       
  67 H67            5.8524     2.0216    -0.2834 H       
  68 H68            3.3804     2.6616     1.4849 H       
  69 H69            3.6581     3.0589    -0.2278 H       
  70 H70            2.2219     2.1206     0.2465 H       
  71 H71            4.2663    -3.4466     0.9106 H       
  72 H72            2.7791    -2.6145     1.4247 H       
  73 H73            2.1194    -2.4160    -0.9961 H       
  74 H74            3.5465    -3.3897    -1.4243 H       
  75 H75            2.2460    -4.1020    -0.4397 H       
@<TRIPOS>BOND
   1    1    2 1
   2    1    4 2
   3    1    5 1
   4    2    3 1
   5    2   27 1
   6    2   40 1
   7    3    6 1
   8    3   41 1
   9    3   42 1
  10    5   43 1
  11    6    7 ar
  12    6   11 ar
  13    7    8 ar
  14    7   44 1
  15    8    9 ar
  16    8   45 1
  17    9   10 ar
  18    9   12 1
  19   10   11 ar
  20   10   46 1
  21   11   47 1
  22   12   13 1
  23   12   17 1
  24   13   14 1
  25   13   48 1
  26   13   49 1
  27   14   15 1
  28   14   50 1
  29   14   51 1
  30   15   16 1
  31   15   18 1
  32   15   52 1
  33   16   17 1
  34   16   53 1
  35   16   54 1
  36   17   55 1
  37   17   56 1
  38   18   19 am
  39   18   20 2
  40   19   21 1
  41   19   57 1
  42   21   22 2
  43   21   26 1
  44   22   23 1
  45   23   24 1
  46   23   58 1
  47   23   59 1
  48   24   25 1
  49   24   60 1
  50   24   61 1
  51   25   26 1
  52   25   62 1
  53   25   63 1
  54   26   64 1
  55   27   28 am
  56   27   65 1
  57   28   29 1
  58   28   35 2
  59   29   30 ar
  60   29   34 ar
  61   30   31 ar
  62   30   38 1
  63   31   32 ar
  64   31   66 1
  65   32   33 ar
  66   32   37 1
  67   33   34 ar
  68   33   67 1
  69   34   36 1
  70   36   68 1
  71   36   69 1
  72   36   70 1
  73   38   39 1
  74   38   71 1
  75   38   72 1
  76   39   73 1
  77   39   74 1
  78   39   75 1

#	End of record

