#	Name: ASD05213011
#	Creating user name:	WinNT
#	Creation time:	15. 06. 2019 20:57

#	Modifying user name:	WinNT
#	Modification time:	15. 06. 2019 20:57

#	Program:	/corina/corina34_cracker 3.40 0067  02.08.2006

@<TRIPOS>MOLECULE
ASD05213011
  33   35    0    0    0
SMALL
NO_CHARGES


@<TRIPOS>ATOM
   1 C1            -0.0184     1.5028     0.0103 C.2     
   2 C2             0.0021    -0.0041     0.0020 C.3     
   3 C3             0.0225    -0.5140     1.4200 C.2     
   4 N4             0.0428    -1.8402     1.6590 N.am    
   5 C5             0.0615    -2.3094     2.9637 C.2     
   6 S6             0.0606    -1.3182     4.3502 S.3     
   7 C7             0.0893    -2.6989     5.4325 C.2     
   8 C8             0.0987    -3.8337     4.7479 C.2     
   9 C9             0.0774    -3.6342     3.3155 C.2     
  10 C10            0.0821    -4.7317     2.3432 C.2     
  11 O11            0.0628    -4.4886     1.1508 O.2     
  12 N12            0.1077    -6.0099     2.7700 N.am    
  13 O13            0.0206     0.2691     2.3461 O.2     
  14 C14            1.0604     2.2604     0.0041 C.2     
  15 C15            0.8034     3.6913     0.0142 C.ar    
  16 C16           -0.5652     3.9733     0.0288 C.ar    
  17 S17           -1.4798     2.4708     0.0219 S.3     
  18 C18            1.7197     4.7653     0.0117 C.ar    
  19 C19            1.2751     6.0515     0.0232 C.ar    
  20 C20           -0.0853     6.3288     0.0377 C.ar    
  21 C21           -0.9999     5.3026     0.0397 C.ar    
  22 H22           -0.8878    -0.3767    -0.5053 H       
  23 H23            0.8920    -0.3525    -0.5222 H       
  24 H24            0.0443    -2.4665     0.9183 H       
  25 H25            0.0988    -2.6330     6.5105 H       
  26 H26            0.1166    -4.8086     5.2124 H       
  27 H27            0.1231    -6.2037     3.7203 H       
  28 H28            0.1108    -6.7360     2.1268 H       
  29 H29            2.0591     1.8494    -0.0073 H       
  30 H30            2.7809     4.5648     0.0009 H       
  31 H31            1.9869     6.8638     0.0215 H       
  32 H32           -0.4259     7.3536     0.0471 H       
  33 H33           -2.0571     5.5234     0.0509 H       
@<TRIPOS>BOND
   1    1    2 1
   2    1   14 2
   3    1   17 1
   4    2    3 1
   5    2   22 1
   6    2   23 1
   7    3    4 am
   8    3   13 2
   9    4    5 1
  10    4   24 1
  11    5    6 1
  12    5    9 2
  13    6    7 1
  14    7    8 2
  15    7   25 1
  16    8    9 1
  17    8   26 1
  18    9   10 1
  19   10   11 2
  20   10   12 am
  21   12   27 1
  22   12   28 1
  23   14   15 1
  24   14   29 1
  25   15   16 ar
  26   15   18 ar
  27   16   17 1
  28   16   21 ar
  29   18   19 ar
  30   18   30 1
  31   19   20 ar
  32   19   31 1
  33   20   21 ar
  34   20   32 1
  35   21   33 1

#	End of record

