#	Name: ASD01884944
#	Creating user name:	WinNT
#	Creation time:	15. 06. 2019 19:49

#	Modifying user name:	WinNT
#	Modification time:	15. 06. 2019 19:49

#	Program:	/corina/corina34_cracker 3.40 0067  02.08.2006

@<TRIPOS>MOLECULE
ASD01884944
  49   52    0    0    0
SMALL
NO_CHARGES


@<TRIPOS>ATOM
   1 C1            -0.0166     1.3746     0.0096 C.ar    
   2 C2             0.0021    -0.0041     0.0020 C.ar    
   3 C3            -1.1977    -0.7167     0.0101 C.ar    
   4 C4            -2.4129    -0.0321     0.0259 C.ar    
   5 C5            -2.4265     1.3465     0.0334 C.ar    
   6 C6            -1.2306     2.0547     0.0307 C.ar    
   7 C7            -1.1808    -2.1978     0.0015 C.2     
   8 C8            -1.6665    -2.9084     1.0846 C.2     
   9 C9            -0.6727    -2.9009    -1.1181 C.2     
  10 C10           -0.6591    -4.2467    -1.1244 C.2     
  11 N11           -1.1319    -4.9566    -0.0579 N.pl3   
  12 C12           -1.6372    -4.3137     1.0461 C.2     
  13 Cl13          -2.3017    -2.0777     2.4703 Cl      
  14 C14           -1.2395    -6.2882     0.2060 C.2     
  15 N15           -1.7714    -6.4127     1.3946 N.2     
  16 N16           -2.0111    -5.2541     1.9003 N.2     
  17 C17           -0.8223    -7.4135    -0.7055 C.3     
  18 N18           -1.2474     3.4505     0.0383 N.pl3   
  19 C19           -2.5247     4.1677     0.0493 C.3     
  20 C20           -2.3327     5.5607    -0.5539 C.3     
  21 C21           -3.6668     6.3097    -0.5424 C.3     
  22 C22           -4.1651     6.4419     0.8981 C.3     
  23 C23           -4.3571     5.0490     1.5012 C.3     
  24 C24           -3.0231     4.3000     1.4898 C.3     
  25 O25           -5.4111     7.1415     0.9087 O.3     
  26 Cl26           1.4751     2.2625     0.0001 Cl      
  27 C27            0.6353    -7.7838    -0.4243 C.3     
  28 F28            0.7645    -8.1906     0.9080 F       
  29 F29            1.0226    -8.8284    -1.2705 F       
  30 F30            1.4517    -6.6711    -0.6534 F       
  31 H31            0.9442    -0.5319    -0.0105 H       
  32 H32           -3.3426    -0.5816     0.0318 H       
  33 H33           -3.3673     1.8766     0.0452 H       
  34 H34           -0.2952    -2.3550    -1.9701 H       
  35 H35           -0.2695    -4.7719    -1.9839 H       
  36 H36           -1.4584    -8.2805    -0.5270 H       
  37 H37           -0.9230    -7.0966    -1.7435 H       
  38 H38           -0.4132     3.9456     0.0364 H       
  39 H39           -3.2569     3.6148    -0.5392 H       
  40 H40           -1.6005     6.1136     0.0346 H       
  41 H41           -1.9777     5.4665    -1.5801 H       
  42 H42           -3.5300     7.3021    -0.9721 H       
  43 H43           -4.3990     5.7568    -1.1309 H       
  44 H44           -3.4329     6.9949     1.4865 H       
  45 H45           -4.7122     5.1432     2.5274 H       
  46 H46           -5.0893     4.4961     0.9128 H       
  47 H47           -3.1599     3.3076     1.9195 H       
  48 H48           -2.2909     4.8529     2.0782 H       
  49 H49           -5.7869     7.2621     1.7915 H       
@<TRIPOS>BOND
   1    1    2 ar
   2    1   26 1
   3    1    6 ar
   4    2    3 ar
   5    2   31 1
   6    3    4 ar
   7    3    7 1
   8    4    5 ar
   9    4   32 1
  10    5    6 ar
  11    5   33 1
  12    6   18 1
  13    7    8 2
  14    7    9 1
  15    8   13 1
  16    8   12 1
  17    9   10 2
  18    9   34 1
  19   10   11 1
  20   10   35 1
  21   11   12 1
  22   11   14 1
  23   12   16 2
  24   14   15 2
  25   14   17 1
  26   15   16 1
  27   17   27 1
  28   17   36 1
  29   17   37 1
  30   18   19 1
  31   18   38 1
  32   19   20 1
  33   19   24 1
  34   19   39 1
  35   20   21 1
  36   20   40 1
  37   20   41 1
  38   21   22 1
  39   21   42 1
  40   21   43 1
  41   22   23 1
  42   22   25 1
  43   22   44 1
  44   23   24 1
  45   23   45 1
  46   23   46 1
  47   24   47 1
  48   24   48 1
  49   25   49 1
  50   27   28 1
  51   27   29 1
  52   27   30 1

#	End of record

