#	Name: ASD07930057
#	Creating user name:	WinNT
#	Creation time:	15. 06. 2019 21:11

#	Modifying user name:	WinNT
#	Modification time:	15. 06. 2019 21:11

#	Program:	/corina/corina34_cracker 3.40 0067  02.08.2006

@<TRIPOS>MOLECULE
ASD07930057
  51   53    0    0    0
SMALL
NO_CHARGES


@<TRIPOS>ATOM
   1 C1            -0.2486     1.3475     0.1723 C.ar    
   2 C2             1.0724     2.0583     0.0282 C.3     
   3 C3             1.9765     1.7171     1.2170 C.3     
   4 C4             1.5167     2.4570     2.4422 C.2     
   5 N5             0.7718     3.5700     2.3736 N.am    
   6 C6             0.3356     4.0629     1.1690 C.2     
   7 N7             0.8556     3.5163     0.0232 N.pl3   
   8 C8             1.7495     1.6317    -1.2758 C.3     
   9 N9            -0.5610     5.0369     1.1141 N.2     
  10 O10            1.8306     2.0313     3.5331 O.2     
  11 C11            0.4163     4.2735     3.6085 C.3     
  12 C12           -0.2891    -0.0355     0.2162 C.ar    
  13 C13           -1.5029    -0.6887     0.3492 C.ar    
  14 C14           -2.6733     0.0399     0.4384 C.ar    
  15 C15           -2.6328     1.4233     0.3945 C.ar    
  16 C16           -1.4190     2.0765     0.2665 C.ar    
  17 C17            3.3948     2.1132     0.8965 C.ar    
  18 C18            4.3937     1.1577     0.8857 C.ar    
  19 C19            5.6946     1.5211     0.5918 C.ar    
  20 C20            5.9966     2.8399     0.3082 C.ar    
  21 C21            4.9976     3.7952     0.3180 C.ar    
  22 C22            3.6959     3.4311     0.6077 C.ar    
  23 F23            0.8554    -0.7480     0.1289 F       
  24 F24           -3.7773     2.1358     0.4814 F       
  25 S25            7.7002     3.3158    -0.0755 Du      
  26 F26            7.1738     4.2041    -1.3108 F       
  27 F27            9.2156     3.7392    -0.4168 F       
  28 F28            8.2266     2.4276     1.1598 F       
  29 F29            7.8368     2.0416    -1.0500 F       
  30 F30            7.5637     4.5901     0.8990 F       
  31 C31           -1.2189     5.3996     2.2147 C.2     
  32 C32           -1.1433     6.8234     2.7029 C.3     
  33 F33           -1.9100     6.9591     3.8652 F       
  34 F34            0.1880     7.1507     2.9816 F       
  35 F35           -1.6377     7.6819     1.7152 F       
  36 O36           -1.8798     4.5824     2.8247 O.2     
  37 H37            1.9362     0.6443     1.4058 H       
  38 H38            1.0703     4.0617    -0.7496 H       
  39 H39            1.1080     1.8878    -2.1190 H       
  40 H40            2.7041     2.1484    -1.3754 H       
  41 H41            1.9188     0.5550    -1.2619 H       
  42 H42            1.1607     4.0600     4.3755 H       
  43 H43            0.3866     5.3466     3.4197 H       
  44 H44           -0.5631     3.9373     3.9491 H       
  45 H45           -1.5346    -1.7677     0.3827 H       
  46 H46           -3.6200    -0.4695     0.5421 H       
  47 H47           -1.3873     3.1555     0.2325 H       
  48 H48            4.1577     0.1273     1.1074 H       
  49 H49            6.4751     0.7747     0.5841 H       
  50 H50            5.2335     4.8256     0.0967 H       
  51 H51            2.9153     4.1775     0.6154 H       
@<TRIPOS>BOND
   1    1   12 ar
   2    1    2 1
   3    1   16 ar
   4    2    8 1
   5    2    3 1
   6    2    7 1
   7    3    4 1
   8    3   17 1
   9    3   37 1
  10    4    5 am
  11    4   10 2
  12    5    6 1
  13    5   11 1
  14    6    7 1
  15    6    9 2
  16    7   38 1
  17    8   39 1
  18    8   40 1
  19    8   41 1
  20    9   31 1
  21   11   42 1
  22   11   43 1
  23   11   44 1
  24   12   13 ar
  25   12   23 1
  26   13   14 ar
  27   13   45 1
  28   14   15 ar
  29   14   46 1
  30   15   16 ar
  31   15   24 1
  32   16   47 1
  33   17   18 ar
  34   17   22 ar
  35   18   19 ar
  36   18   48 1
  37   19   20 ar
  38   19   49 1
  39   20   21 ar
  40   20   25 1
  41   21   22 ar
  42   21   50 1
  43   22   51 1
  44   25   26 1
  45   25   27 1
  46   25   28 1
  47   25   29 1
  48   25   30 1
  49   31   32 1
  50   31   36 2
  51   32   33 1
  52   32   34 1
  53   32   35 1

#	End of record

