#	Name: ASD01148140
#	Creating user name:	WinNT
#	Creation time:	15. 06. 2019 19:02

#	Modifying user name:	WinNT
#	Modification time:	15. 06. 2019 19:02

#	Program:	/corina/corina34_cracker 3.40 0067  02.08.2006

@<TRIPOS>MOLECULE
ASD01148140
  53   57    0    0    0
SMALL
NO_CHARGES


@<TRIPOS>ATOM
   1 C1            -0.0177     1.3916    -0.0575 C.ar    
   2 C2             0.0022    -0.0006    -0.0492 C.ar    
   3 N3            -1.1094    -0.7044    -0.0219 N.ar    
   4 C4            -2.3042    -0.1268    -0.0005 C.ar    
   5 C5            -2.4008     1.2759    -0.0068 C.ar    
   6 C6            -1.2402     2.0510    -0.0307 C.ar    
   7 N7            -3.4466    -0.8951     0.0272 N.pl3   
   8 C8            -4.6780    -0.3682     0.0492 C.2     
   9 C9            -4.8973     0.9935     0.0457 C.2     
  10 C10           -3.7365     1.8980     0.0172 C.2     
  11 C11           -6.2665     1.5320     0.0701 C.2     
  12 N12           -6.4663     2.8602     0.1813 N.am    
  13 C13           -7.8219     3.4075     0.0868 C.3     
  14 O14           -7.2179     0.7785    -0.0103 O.2     
  15 O15           -3.8740     3.1088     0.0133 O.2     
  16 C16           -3.3092    -2.3537     0.0325 C.3     
  17 N17            1.1781     2.1171    -0.0866 N.pl3   
  18 C18            2.4621     1.4122    -0.1086 C.3     
  19 C19            3.5593     2.2905    -0.7465 C.3     
  20 C20            4.8234     1.9640     0.0196 C.ar    
  21 C21            4.5004     1.3386     1.2091 C.ar    
  22 C22            2.9972     1.2020     1.3238 C.3     
  23 C23            6.1511     2.1962    -0.2988 C.ar    
  24 C24            7.1524     1.8046     0.5680 C.ar    
  25 C25            6.8293     1.1790     1.7578 C.ar    
  26 C26            5.5060     0.9470     2.0772 C.ar    
  27 C27           -3.2317    -2.8534     1.4765 C.3     
  28 C28           -8.0916     4.7488     0.7716 C.3     
  29 C29           -8.0169     4.6704    -0.7546 C.3     
  30 H30            0.9518    -0.5147    -0.0659 H       
  31 H31           -1.2912     3.1298    -0.0359 H       
  32 H32           -5.5289    -1.0330     0.0701 H       
  33 H33           -5.7125     3.4538     0.3240 H       
  34 H34           -8.6267     2.6723     0.0855 H       
  35 H35           -4.1716    -2.8016    -0.4612 H       
  36 H36           -2.3999    -2.6349    -0.4986 H       
  37 H37            1.1570     3.0869    -0.0923 H       
  38 H38            2.3717     0.4620    -0.6350 H       
  39 H39            3.6801     2.0391    -1.8002 H       
  40 H40            3.3114     3.3461    -0.6348 H       
  41 H41            2.5981     1.9647     1.9924 H       
  42 H42            2.7342     0.2073     1.6836 H       
  43 H43            6.4042     2.6849    -1.2280 H       
  44 H44            8.1868     1.9865     0.3164 H       
  45 H45            7.6111     0.8720     2.4367 H       
  46 H46            5.2544     0.4583     3.0069 H       
  47 H47           -2.3693    -2.4055     1.9702 H       
  48 H48           -4.1411    -2.5722     2.0076 H       
  49 H49           -3.1295    -3.9386     1.4804 H       
  50 H50           -9.0739     4.8962     1.2205 H       
  51 H51           -7.2604     5.2241     1.2924 H       
  52 H52           -7.1365     5.0941    -1.2378 H       
  53 H53           -8.9500     4.7662    -1.3097 H       
@<TRIPOS>BOND
   1    1    2 ar
   2    1   17 1
   3    1    6 ar
   4    2    3 ar
   5    2   30 1
   6    3    4 ar
   7    4    5 ar
   8    4    7 1
   9    5    6 ar
  10    5   10 1
  11    6   31 1
  12    7    8 1
  13    7   16 1
  14    8    9 2
  15    8   32 1
  16    9   10 1
  17    9   11 1
  18   10   15 2
  19   11   12 am
  20   11   14 2
  21   12   13 1
  22   12   33 1
  23   13   28 1
  24   13   29 1
  25   13   34 1
  26   16   27 1
  27   16   35 1
  28   16   36 1
  29   17   18 1
  30   17   37 1
  31   18   19 1
  32   18   22 1
  33   18   38 1
  34   19   20 1
  35   19   39 1
  36   19   40 1
  37   20   21 ar
  38   20   23 ar
  39   21   22 1
  40   21   26 ar
  41   22   41 1
  42   22   42 1
  43   23   24 ar
  44   23   43 1
  45   24   25 ar
  46   24   44 1
  47   25   26 ar
  48   25   45 1
  49   26   46 1
  50   27   47 1
  51   27   48 1
  52   27   49 1
  53   28   29 1
  54   28   50 1
  55   28   51 1
  56   29   52 1
  57   29   53 1

#	End of record

