#	Name: ASD01048001
#	Creating user name:	WinNT
#	Creation time:	15. 06. 2019 18:58

#	Modifying user name:	WinNT
#	Modification time:	15. 06. 2019 18:58

#	Program:	/corina/corina34_cracker 3.40 0067  02.08.2006

@<TRIPOS>MOLECULE
ASD01048001
  43   46    0    0    0
SMALL
NO_CHARGES


@<TRIPOS>ATOM
   1 C1             0.1966     1.6425     0.3742 C.ar    
   2 C2             0.2357     0.4570    -0.3455 C.ar    
   3 C3             1.4184    -0.2552    -0.4429 C.ar    
   4 C4             2.5731     0.2241     0.1859 C.ar    
   5 C5             2.5253     1.4160     0.9064 C.ar    
   6 C6             1.3420     2.1189     0.9984 C.ar    
   7 O7            -0.9645     2.3424     0.4638 O.3     
   8 O8             1.4581    -1.4167    -1.1465 O.3     
   9 N9             5.3331    -2.1780     0.0952 N.pl3   
  10 N10            3.9928    -1.8220     0.2760 N.2     
  11 C11            3.8425    -0.5335     0.0862 C.2     
  12 C12            5.1596     0.0213    -0.2438 C.ar    
  13 C13            5.6245     1.3043    -0.5432 C.ar    
  14 C14            6.9490     1.4970    -0.8135 C.ar    
  15 C15            7.8374     0.4291    -0.7938 C.ar    
  16 C16            7.4056    -0.8342    -0.5041 C.ar    
  17 C17            6.0597    -1.0597    -0.2235 C.ar    
  18 C18            8.3829    -1.9812    -0.4881 C.3     
  19 F19            9.6622    -1.5082    -0.7992 F       
  20 F20            8.3976    -2.5636     0.7838 F       
  21 F21            7.9961    -2.9366    -1.4340 F       
  22 C22            5.8764    -3.5318     0.2312 C.3     
  23 C23            5.6519    -4.0242     1.6377 C.ar    
  24 C24            4.5564    -4.8163     1.9261 C.ar    
  25 C25            4.3505    -5.2680     3.2162 C.ar    
  26 C26            5.2404    -4.9279     4.2179 C.ar    
  27 C27            6.3364    -4.1365     3.9293 C.ar    
  28 C28            6.5447    -3.6884     2.6383 C.ar    
  29 H29           -0.6571     0.0896    -0.8296 H       
  30 H30            3.4144     1.7891     1.3930 H       
  31 H31            1.3062     3.0424     1.5571 H       
  32 H32           -1.5155     2.0952     1.2191 H       
  33 H33            1.6803    -1.3032    -2.0807 H       
  34 H34            4.9398     2.1393    -0.5611 H       
  35 H35            7.3092     2.4885    -1.0450 H       
  36 H36            8.8816     0.5995    -1.0103 H       
  37 H37            5.3742    -4.1970    -0.4712 H       
  38 H38            6.9451    -3.5175     0.0174 H       
  39 H39            3.8611    -5.0820     1.1435 H       
  40 H40            3.4941    -5.8862     3.4417 H       
  41 H41            5.0791    -5.2802     5.2260 H       
  42 H42            7.0315    -3.8706     4.7119 H       
  43 H43            7.4030    -3.0732     2.4120 H       
@<TRIPOS>BOND
   1    1    2 ar
   2    1    6 ar
   3    1    7 1
   4    2    3 ar
   5    2   29 1
   6    3    4 ar
   7    3    8 1
   8    4    5 ar
   9    4   11 1
  10    5    6 ar
  11    5   30 1
  12    6   31 1
  13    7   32 1
  14    8   33 1
  15    9   10 1
  16    9   17 1
  17    9   22 1
  18   10   11 2
  19   11   12 1
  20   12   13 ar
  21   12   17 ar
  22   13   14 ar
  23   13   34 1
  24   14   15 ar
  25   14   35 1
  26   15   16 ar
  27   15   36 1
  28   16   17 ar
  29   16   18 1
  30   18   19 1
  31   18   20 1
  32   18   21 1
  33   22   23 1
  34   22   37 1
  35   22   38 1
  36   23   24 ar
  37   23   28 ar
  38   24   25 ar
  39   24   39 1
  40   25   26 ar
  41   25   40 1
  42   26   27 ar
  43   26   41 1
  44   27   28 ar
  45   27   42 1
  46   28   43 1

#	End of record

