#	Name: ASD01200387
#	Creating user name:	WinNT
#	Creation time:	15. 06. 2019 19:09

#	Modifying user name:	WinNT
#	Modification time:	15. 06. 2019 19:09

#	Program:	/corina/corina34_cracker 3.40 0067  02.08.2006

@<TRIPOS>MOLECULE
ASD01200387
  29   30    0    0    0
SMALL
NO_CHARGES


@<TRIPOS>ATOM
   1 C1            -0.0167     1.3833     0.0096 C.ar    
   2 C2             0.0021    -0.0041     0.0020 C.ar    
   3 C3             1.2080    -0.6773    -0.0131 C.ar    
   4 C4             2.3965     0.0307    -0.0202 C.ar    
   5 C5             2.3801     1.4135    -0.0122 C.ar    
   6 C6             1.1762     2.0911     0.0021 C.ar    
   7 C7            -1.2923    -0.7758     0.0107 C.3     
   8 I8             4.2239    -0.9936    -0.0425 I       
   9 O9            -1.2023     2.0478     0.0189 O.3     
  10 C10           -1.1456     3.4756     0.0264 C.3     
  11 C11           -2.5454     4.0339     0.0361 C.ar    
  12 C12           -3.1817     4.2834     1.2376 C.ar    
  13 C13           -4.4657     4.7954     1.2465 C.ar    
  14 C14           -5.1132     5.0583     0.0538 C.ar    
  15 C15           -4.4766     4.8096    -1.1477 C.ar    
  16 C16           -3.1909     4.3017    -1.1566 C.ar    
  17 H17            1.2231    -1.7571    -0.0191 H       
  18 H18            3.3092     1.9642    -0.0174 H       
  19 H19            1.1638     3.1710     0.0076 H       
  20 H20           -1.6146    -0.9564    -1.0148 H       
  21 H21           -1.1435    -1.7290     0.5180 H       
  22 H22           -2.0550    -0.2002     0.5353 H       
  23 H23           -0.6136     3.8135     0.9157 H       
  24 H24           -0.6220     3.8232    -0.8642 H       
  25 H25           -2.6758     4.0780     2.1694 H       
  26 H26           -4.9631     4.9897     2.1852 H       
  27 H27           -6.1167     5.4577     0.0607 H       
  28 H28           -4.9826     5.0147    -2.0796 H       
  29 H29           -2.6922     4.1109    -2.0953 H       
@<TRIPOS>BOND
   1    1    2 ar
   2    1    6 ar
   3    1    9 1
   4    2    3 ar
   5    2    7 1
   6    3    4 ar
   7    3   17 1
   8    4    5 ar
   9    4    8 1
  10    5    6 ar
  11    5   18 1
  12    6   19 1
  13    7   20 1
  14    7   21 1
  15    7   22 1
  16    9   10 1
  17   10   11 1
  18   10   23 1
  19   10   24 1
  20   11   12 ar
  21   11   16 ar
  22   12   13 ar
  23   12   25 1
  24   13   14 ar
  25   13   26 1
  26   14   15 ar
  27   14   27 1
  28   15   16 ar
  29   15   28 1
  30   16   29 1

#	End of record

