#	Name: ASD01940243
#	Creating user name:	WinNT
#	Creation time:	15. 06. 2019 20:12

#	Modifying user name:	WinNT
#	Modification time:	15. 06. 2019 20:12

#	Program:	/corina/corina34_cracker 3.40 0067  02.08.2006

@<TRIPOS>MOLECULE
ASD01940243
  36   38    0    0    0
SMALL
NO_CHARGES


@<TRIPOS>ATOM
   1 O1            -0.1424     0.9328    -0.0938 O.3     
   2 C2            -0.2553    -0.4045    -0.0430 C.2     
   3 C3             0.9790    -0.9373    -0.0873 C.2     
   4 C4             1.8884     0.1422    -0.1695 C.2     
   5 C5             1.1554     1.2700    -0.1706 C.2     
   6 S6            -1.7643    -1.3078     0.0640 S.o2    
   7 O7            -2.7776    -0.4599    -0.4591 O.2     
   8 O8            -1.4934    -2.6042    -0.4510 O.2     
   9 N9            -2.1043    -1.5054     1.6726 N.am    
  10 C10           -2.2961    -0.3843     2.4911 C.ar    
  11 C11           -1.8555    -0.4015     3.8139 C.ar    
  12 C12           -2.0477     0.7122     4.6200 C.ar    
  13 C13           -2.6763     1.8366     4.1082 C.ar    
  14 C14           -3.1132     1.8510     2.7950 C.ar    
  15 C15           -2.9192     0.7463     1.9854 C.ar    
  16 N16           -1.2207    -1.5403     4.3283 N.pl3   
  17 C17           -1.1254    -1.7229     5.7115 C.ar    
  18 C18           -2.2499    -2.0863     6.4461 C.ar    
  19 C19           -2.1512    -2.2662     7.8130 C.ar    
  20 C20           -0.9361    -2.0847     8.4499 C.ar    
  21 C21            0.1826    -1.7231     7.7218 C.ar    
  22 C22            0.0926    -1.5475     6.3541 C.ar    
  23 I23           -0.7910    -2.3577    10.5219 I       
  24 F24           -3.4363    -2.2626     5.8243 F       
  25 F25           -2.8633     2.9203     4.8928 F       
  26 F26           -1.6229     0.6999     5.9024 F       
  27 H27            1.2277    -1.9880    -0.0639 H       
  28 H28            2.9650     0.0742    -0.2212 H       
  29 H29            1.5444     2.2761    -0.2241 H       
  30 H30           -2.1707    -2.3972     2.0484 H       
  31 H31           -3.6031     2.7287     2.4001 H       
  32 H32           -3.2571     0.7630     0.9598 H       
  33 H33           -0.8475    -2.2018     3.7250 H       
  34 H34           -3.0231    -2.5483     8.3845 H       
  35 H35            1.1291    -1.5816     8.2223 H       
  36 H36            0.9681    -1.2695     5.7862 H       
@<TRIPOS>BOND
   1    1    2 1
   2    1    5 1
   3    2    3 2
   4    2    6 1
   5    3    4 1
   6    3   27 1
   7    4    5 2
   8    4   28 1
   9    5   29 1
  10    6    7 2
  11    6    8 2
  12    6    9 am
  13    9   10 1
  14    9   30 1
  15   10   11 ar
  16   10   15 ar
  17   11   12 ar
  18   11   16 1
  19   12   13 ar
  20   12   26 1
  21   13   14 ar
  22   13   25 1
  23   14   15 ar
  24   14   31 1
  25   15   32 1
  26   16   17 1
  27   16   33 1
  28   17   18 ar
  29   17   22 ar
  30   18   19 ar
  31   18   24 1
  32   19   20 ar
  33   19   34 1
  34   20   21 ar
  35   20   23 1
  36   21   22 ar
  37   21   35 1
  38   22   36 1

#	End of record

