#	Name: ASD01816323
#	Creating user name:	WinNT
#	Creation time:	15. 06. 2019 19:35

#	Modifying user name:	WinNT
#	Modification time:	15. 06. 2019 19:35

#	Program:	/corina/corina34_cracker 3.40 0067  02.08.2006

@<TRIPOS>MOLECULE
ASD01816323
  49   54    0    0    0
SMALL
NO_CHARGES


@<TRIPOS>ATOM
   1 C1            -0.0167     1.3814     0.0096 C.ar    
   2 C2             0.0021    -0.0041     0.0020 C.ar    
   3 C3             1.1982    -0.6909    -0.0126 C.ar    
   4 C4             2.4015     0.0060    -0.0198 C.ar    
   5 C5             2.3790     1.4107    -0.0126 C.ar    
   6 C6             1.1662     2.0917     0.0022 C.ar    
   7 N7             3.6051    -0.6770    -0.0336 N.pl3   
   8 C8             4.7969    -0.0582    -0.0411 C.2     
   9 C9             4.8998     1.3105    -0.0356 C.2     
  10 C10            3.6669     2.1303    -0.0205 C.2     
  11 C11            5.9971     2.2734    -0.0410 C.2     
  12 N12            5.4243     3.4964    -0.0305 N.am    
  13 N13            4.0321     3.3800    -0.0183 N.2     
  14 O14            7.1904     2.0237    -0.0524 O.2     
  15 C15            3.5777    -2.1417    -0.0397 C.3     
  16 C16            3.5556    -2.6378    -1.4625 C.ar    
  17 C17            4.7436    -2.8872    -2.1248 C.ar    
  18 C18            4.7266    -3.3415    -3.4290 C.ar    
  19 C19            3.5151    -3.5481    -4.0749 C.ar    
  20 C20            2.3240    -3.2971    -3.4072 C.ar    
  21 C21            2.3474    -2.8479    -2.1013 C.ar    
  22 N22            3.4946    -4.0087    -5.3988 N.pl3   
  23 C23            2.3899    -4.2501    -6.1404 C.2     
  24 C24            2.7968    -4.6799    -7.3573 C.2     
  25 C25            4.1958    -4.7022    -7.3606 C.2     
  26 N26            4.6149    -4.2945    -6.1897 N.2     
  27 C27            6.0994     4.6629    -0.0316 C.2     
  28 C28            5.3640     5.9400    -0.0193 C.2     
  29 O29            7.3151     4.6616    -0.0427 O.2     
  30 C30            5.9260     7.1860    -0.0190 C.2     
  31 N31            4.9104     8.0723    -0.0067 N.pl3   
  32 N32            3.7223     7.3279     0.0004 N.2     
  33 N33            4.0266     6.0769    -0.0124 N.2     
  34 H34           -0.9602     1.9069     0.0169 H       
  35 H35           -0.9289    -0.5515     0.0079 H       
  36 H36            1.2002    -1.7709    -0.0181 H       
  37 H37            1.1505     3.1716     0.0077 H       
  38 H38            5.6982    -0.6532    -0.0514 H       
  39 H39            4.4653    -2.5238     0.4646 H       
  40 H40            2.6857    -2.4906     0.4806 H       
  41 H41            5.6857    -2.7264    -1.6218 H       
  42 H42            5.6548    -3.5355    -3.9460 H       
  43 H43            1.3800    -3.4566    -3.9072 H       
  44 H44            1.4211    -2.6526    -1.5814 H       
  45 H45            1.3666    -4.1234    -5.8190 H       
  46 H46            2.1550    -4.9569    -8.1806 H       
  47 H47            4.8221    -5.0003    -8.1885 H       
  48 H48            6.9812     7.4162    -0.0268 H       
  49 H49            4.9869     9.0393    -0.0031 H       
@<TRIPOS>BOND
   1    1    2 ar
   2    1    6 ar
   3    1   34 1
   4    2    3 ar
   5    2   35 1
   6    3    4 ar
   7    3   36 1
   8    4    5 ar
   9    4    7 1
  10    5    6 ar
  11    5   10 1
  12    6   37 1
  13    7    8 1
  14    7   15 1
  15    8    9 2
  16    8   38 1
  17    9   10 1
  18    9   11 1
  19   10   13 2
  20   11   12 am
  21   11   14 2
  22   12   13 1
  23   12   27 am
  24   15   16 1
  25   15   39 1
  26   15   40 1
  27   16   17 ar
  28   16   21 ar
  29   17   18 ar
  30   17   41 1
  31   18   19 ar
  32   18   42 1
  33   19   20 ar
  34   19   22 1
  35   20   21 ar
  36   20   43 1
  37   21   44 1
  38   22   23 1
  39   22   26 1
  40   23   24 2
  41   23   45 1
  42   24   25 1
  43   24   46 1
  44   25   26 2
  45   25   47 1
  46   27   28 1
  47   27   29 2
  48   28   30 2
  49   28   33 1
  50   30   31 1
  51   30   48 1
  52   31   32 1
  53   31   49 1
  54   32   33 2

#	End of record

