#	Name: ASD03091997
#	Creating user name:	WinNT
#	Creation time:	15. 06. 2019 20:31

#	Modifying user name:	WinNT
#	Modification time:	15. 06. 2019 20:31

#	Program:	/corina/corina34_cracker 3.40 0067  02.08.2006

@<TRIPOS>MOLECULE
ASD03091997
  44   45    0    0    0
SMALL
NO_CHARGES


@<TRIPOS>ATOM
   1 C1            -0.0167     1.3813     0.0096 C.ar    
   2 C2             0.0021    -0.0041     0.0020 C.ar    
   3 C3             1.2173    -0.6626    -0.0131 C.ar    
   4 N4             2.3521     0.0093    -0.0199 N.ar    
   5 C5             2.3790     1.3269    -0.0131 C.ar    
   6 C6             1.1993     2.0593     0.0017 C.ar    
   7 N7             1.2322     3.4604     0.0084 N.pl3   
   8 N8             0.1197     4.3112     0.0292 N.2     
   9 C9             2.3509     4.2355     0.0018 C.2     
  10 C10            1.9504     5.5323     0.0121 C.2     
  11 C11            0.5463     5.5488     0.0293 C.2     
  12 N12            2.7927     6.6601     0.0103 N.am    
  13 C13            3.1854     7.2060    -1.1577 C.2     
  14 C14            4.0872     8.4134    -1.1597 C.3     
  15 C15            4.3793     8.8294    -2.6028 C.3     
  16 S16            5.4648    10.2828    -2.6051 S.3     
  17 C17            5.6930    10.6188    -4.3731 C.3     
  18 C18            6.6012    11.8377    -4.5475 C.3     
  19 C19            6.7937    12.1211    -6.0386 C.3     
  20 C20            3.2425     7.2404     1.2780 C.3     
  21 C21            4.5547     6.5793     1.7044 C.3     
  22 O22            2.8129     6.7254    -2.2074 O.2     
  23 F23            5.5513    12.3769    -6.6288 F       
  24 F24            7.6241    13.2356    -6.1981 F       
  25 F25            7.3816    11.0098    -6.6524 F       
  26 Cl26          -0.4530     6.9682     0.0513 Cl      
  27 H27           -0.9516     1.9219     0.0170 H       
  28 H28           -0.9221    -0.5629     0.0082 H       
  29 H29            1.2377    -1.7424    -0.0191 H       
  30 H30            3.3280     1.8423    -0.0186 H       
  31 H31            3.3716     3.8828    -0.0092 H       
  32 H32            3.5962     9.2344    -0.6372 H       
  33 H33            5.0222     8.1693    -0.6555 H       
  34 H34            4.8703     8.0084    -3.1253 H       
  35 H35            3.4443     9.0735    -3.1069 H       
  36 H36            6.1511     9.7530    -4.8513 H       
  37 H37            4.7251    10.8181    -4.8329 H       
  38 H38            6.1431    12.7034    -4.0692 H       
  39 H39            7.5691    11.6383    -4.0876 H       
  40 H40            3.3996     8.3116     1.1517 H       
  41 H41            2.4852     7.0720     2.0437 H       
  42 H42            4.3976     5.5081     1.8307 H       
  43 H43            5.3120     6.7477     0.9388 H       
  44 H44            4.8894     7.0111     2.6477 H       
@<TRIPOS>BOND
   1    1    2 ar
   2    1    6 ar
   3    1   27 1
   4    2    3 ar
   5    2   28 1
   6    3    4 ar
   7    3   29 1
   8    4    5 ar
   9    5    6 ar
  10    5   30 1
  11    6    7 1
  12    7    9 1
  13    7    8 1
  14    8   11 2
  15    9   10 2
  16    9   31 1
  17   10   11 1
  18   10   12 1
  19   11   26 1
  20   12   13 am
  21   12   20 1
  22   13   14 1
  23   13   22 2
  24   14   15 1
  25   14   32 1
  26   14   33 1
  27   15   16 1
  28   15   34 1
  29   15   35 1
  30   16   17 1
  31   17   18 1
  32   17   36 1
  33   17   37 1
  34   18   19 1
  35   18   38 1
  36   18   39 1
  37   19   23 1
  38   19   24 1
  39   19   25 1
  40   20   21 1
  41   20   40 1
  42   20   41 1
  43   21   42 1
  44   21   43 1
  45   21   44 1

#	End of record

