#	Name: ASD06170194
#	Creating user name:	WinNT
#	Creation time:	15. 06. 2019 21:05

#	Modifying user name:	WinNT
#	Modification time:	15. 06. 2019 21:05

#	Program:	/corina/corina34_cracker 3.40 0067  02.08.2006

@<TRIPOS>MOLECULE
ASD06170194
  90   95    0    0    0
SMALL
NO_CHARGES


@<TRIPOS>ATOM
   1 C1            -0.0632     1.2310    -0.1173 C.2     
   2 C2            -0.0030    -0.1117    -0.4345 C.2     
   3 C3             1.2446    -0.7598    -0.4897 C.2     
   4 C4             2.3937    -0.0239    -0.2209 C.2     
   5 C5             2.2705     1.3533     0.0995 C.2     
   6 N6             1.0570     1.9331     0.1411 N.am    
   7 C7            -3.0481    -2.3965     0.0567 C.3     
   8 C8            -1.5636    -2.0382     0.1638 C.3     
   9 C9            -1.2441    -0.8651    -0.7144 C.2     
  10 C10           -1.9917    -0.4626    -1.7132 C.2     
  11 C11           -3.2866    -1.1229    -2.0973 C.3     
  12 N12           -3.4141    -2.3940    -1.3702 N.am    
  13 C13           -3.8488    -3.5123    -1.9842 C.2     
  14 O14           -3.9453    -4.5500    -1.3596 O.2     
  15 O15           -4.1761    -3.4795    -3.2898 O.3     
  16 C16            0.9520     3.3559     0.4740 C.3     
  17 C17            0.8053     3.5134     1.9655 C.ar    
  18 C18            1.9285     3.6476     2.7601 C.ar    
  19 C19            1.7939     3.7920     4.1283 C.ar    
  20 C20            0.5362     3.8027     4.7018 C.ar    
  21 C21           -0.5870     3.6694     3.9071 C.ar    
  22 C22           -0.4526     3.5293     2.5384 C.ar    
  23 O23            3.2672     2.0130     0.3378 O.2     
  24 C24            3.7174    -0.6636    -0.2675 C.2     
  25 O25            3.8065    -1.8659    -0.4302 O.2     
  26 N26            4.8315     0.0822    -0.1298 N.am    
  27 C27            6.0786    -0.5364    -0.0434 C.ar    
  28 C28            6.1555    -1.8866     0.2799 C.ar    
  29 C29            7.3971    -2.4902     0.3624 C.ar    
  30 C30            8.5288    -1.7163     0.1166 C.ar    
  31 C31            8.3754    -0.3761    -0.2004 C.ar    
  32 N32            7.1753     0.1667    -0.2755 N.ar    
  33 O33            9.7689    -2.2690     0.1873 O.3     
  34 N34           10.9750    -4.6741    -2.9388 N.ar    
  35 C35            9.8332    -4.0304    -3.0037 C.ar    
  36 C36            9.3936    -3.2124    -1.9705 C.ar    
  37 C37           10.1718    -3.0618    -0.8362 C.ar    
  38 C38           11.3994    -3.7592    -0.7776 C.ar    
  39 C39           12.2419    -3.6566     0.3395 C.ar    
  40 C40           13.4204    -4.3449     0.3622 C.ar    
  41 C41           13.7972    -5.1533    -0.7198 C.ar    
  42 C42           12.9961    -5.2708    -1.8189 C.ar    
  43 C43           11.7771    -4.5748    -1.8720 C.ar    
  44 O44           14.9756    -5.8284    -0.6738 O.3     
  45 C45           15.3052    -6.6359    -1.8058 C.3     
  46 O46           14.2374    -4.2453     1.4446 O.3     
  47 C47           13.7978    -3.4057     2.5141 C.3     
  48 C48           -4.6366    -4.7211    -3.8854 C.3     
  49 C49           -5.8947    -5.1997    -3.1581 C.3     
  50 C50           -4.9588    -4.4892    -5.3630 C.3     
  51 C51           -3.5415    -5.7825    -3.7626 C.3     
  52 H52           -1.0221     1.7265    -0.0803 H       
  53 H53            1.3087    -1.8094    -0.7359 H       
  54 H54           -3.2198    -3.3864     0.4796 H       
  55 H55           -3.6451    -1.6578     0.5916 H       
  56 H56           -1.3265    -1.7894     1.1982 H       
  57 H57           -0.9631    -2.8939    -0.1450 H       
  58 H58           -1.6603     0.3881    -2.2902 H       
  59 H59           -4.1197    -0.4697    -1.8378 H       
  60 H60           -3.2935    -1.3148    -3.1703 H       
  61 H61            1.8510     3.8744     0.1405 H       
  62 H62            0.0810     3.7822    -0.0238 H       
  63 H63            2.9111     3.6393     2.3121 H       
  64 H64            2.6714     3.8962     4.7492 H       
  65 H65            0.4311     3.9148     5.7708 H       
  66 H66           -1.5696     3.6773     4.3552 H       
  67 H67           -1.3303     3.4288     1.9171 H       
  68 H68            4.7661     1.0492    -0.0907 H       
  69 H69            5.2569    -2.4567     0.4646 H       
  70 H70            7.4871    -3.5371     0.6119 H       
  71 H71            9.2484     0.2302    -0.3922 H       
  72 H72            9.2180    -4.1400    -3.8845 H       
  73 H73            8.4492    -2.6950    -2.0528 H       
  74 H74           11.9596    -3.0360     1.1770 H       
  75 H75           13.2988    -5.8966    -2.6454 H       
  76 H76           14.5371    -7.3965    -1.9456 H       
  77 H77           15.3615    -6.0086    -2.6955 H       
  78 H78           16.2684    -7.1183    -1.6399 H       
  79 H79           14.5400    -3.4154     3.3123 H       
  80 H80           13.6714    -2.3869     2.1478 H       
  81 H81           12.8466    -3.7744     2.8980 H       
  82 H82           -6.6748    -4.4435    -3.2455 H       
  83 H83           -6.2404    -6.1318    -3.6051 H       
  84 H84           -5.6651    -5.3649    -2.1054 H       
  85 H85           -4.0625    -4.1482    -5.8811 H       
  86 H86           -5.3044    -5.4213    -5.8100 H       
  87 H87           -5.7389    -3.7330    -5.4504 H       
  88 H88           -3.3120    -5.9477    -2.7099 H       
  89 H89           -3.8872    -6.7146    -4.2097 H       
  90 H90           -2.6452    -5.4415    -4.2807 H       
@<TRIPOS>BOND
   1    1    2 2
   2    1    6 1
   3    1   52 1
   4    2    3 1
   5    2    9 1
   6    3    4 2
   7    3   53 1
   8    4    5 1
   9    4   24 1
  10    5    6 am
  11    5   23 2
  12    6   16 1
  13    7    8 1
  14    7   12 1
  15    7   54 1
  16    7   55 1
  17    8    9 1
  18    8   56 1
  19    8   57 1
  20    9   10 2
  21   10   11 1
  22   10   58 1
  23   11   12 1
  24   11   59 1
  25   11   60 1
  26   12   13 am
  27   13   14 2
  28   13   15 1
  29   15   48 1
  30   16   17 1
  31   16   61 1
  32   16   62 1
  33   17   18 ar
  34   17   22 ar
  35   18   19 ar
  36   18   63 1
  37   19   20 ar
  38   19   64 1
  39   20   21 ar
  40   20   65 1
  41   21   22 ar
  42   21   66 1
  43   22   67 1
  44   24   25 2
  45   24   26 am
  46   26   27 1
  47   26   68 1
  48   27   28 ar
  49   27   32 ar
  50   28   29 ar
  51   28   69 1
  52   29   30 ar
  53   29   70 1
  54   30   31 ar
  55   30   33 1
  56   31   32 ar
  57   31   71 1
  58   33   37 1
  59   34   35 ar
  60   34   43 ar
  61   35   36 ar
  62   35   72 1
  63   36   37 ar
  64   36   73 1
  65   37   38 ar
  66   38   39 ar
  67   38   43 ar
  68   39   40 ar
  69   39   74 1
  70   40   41 ar
  71   40   46 1
  72   41   42 ar
  73   41   44 1
  74   42   43 ar
  75   42   75 1
  76   44   45 1
  77   45   76 1
  78   45   77 1
  79   45   78 1
  80   46   47 1
  81   47   79 1
  82   47   80 1
  83   47   81 1
  84   48   49 1
  85   48   50 1
  86   48   51 1
  87   49   82 1
  88   49   83 1
  89   49   84 1
  90   50   85 1
  91   50   86 1
  92   50   87 1
  93   51   88 1
  94   51   89 1
  95   51   90 1

#	End of record

