#	Name: ASD08178159
#	Creating user name:	WinNT
#	Creation time:	15. 06. 2019 21:18

#	Modifying user name:	WinNT
#	Modification time:	15. 06. 2019 21:18

#	Program:	/corina/corina34_cracker 3.40 0067  02.08.2006

@<TRIPOS>MOLECULE
ASD08178159
  81   85    0    0    0
SMALL
NO_CHARGES


@<TRIPOS>ATOM
   1 C1            -0.0155     1.2947     0.0092 C.2     
   2 N2             0.0021    -0.0041     0.0020 N.2     
   3 N3            -1.1080    -0.6053     0.0094 N.2     
   4 C4            -2.1692     0.1372     0.0235 C.2     
   5 S5            -1.6454     1.8216     0.0350 S.3     
   6 C6            -3.5951    -0.3504     0.0340 C.3     
   7 C7            -4.0644    -0.5229     1.4800 C.3     
   8 C8            -5.5121    -1.0179     1.4907 C.3     
   9 C9            -5.9814    -1.1905     2.9367 C.3     
  10 C10           -7.4073    -1.6780     2.9473 C.2     
  11 N11           -7.7918    -2.9148     2.9447 N.2     
  12 N12           -9.0376    -3.1191     2.9550 N.2     
  13 C13           -9.8187    -2.0813     2.9671 C.2     
  14 S14           -8.8524    -0.6668     2.9729 S.3     
  15 N15          -11.2091    -2.1133     2.9791 N.am    
  16 C16          -11.8559    -3.2957     2.9793 C.2     
  17 C17          -13.3625    -3.3304     2.9924 C.3     
  18 O18          -11.2256    -4.3318     2.9690 O.2     
  19 C19          -13.8897    -2.7357     1.7120 C.ar    
  20 C20          -14.2495    -1.4022     1.6664 C.ar    
  21 N21            1.1034     2.1206     0.0029 N.am    
  22 C22            2.3386     1.5818    -0.0123 C.2     
  23 O23            2.4745     0.3766    -0.0205 O.2     
  24 C24            3.5511     2.4767    -0.0190 C.3     
  25 O25            4.7534     1.6628    -0.0355 O.3     
  26 C26            5.8445     2.1755     0.5548 C.2     
  27 O27            5.7965     3.2682     1.0682 O.2     
  28 C28            7.1293     1.3882     0.5771 C.3     
  29 C29            8.2080     2.1930     1.3048 C.3     
  30 N30            9.4604     1.4256     1.3266 N.3     
  31 C31           10.5777     2.2540     1.8027 C.3     
  32 C32           11.8475     1.4010     1.8663 C.3     
  33 O33           12.1023     0.8375     0.5768 O.3     
  34 C34           11.0348     0.0241     0.0827 C.3     
  35 C35            9.7568     0.8632     0.0010 C.3     
  36 C36            3.5213     3.3536    -1.2443 C.ar    
  37 C37            3.0860     4.6619    -1.1472 C.ar    
  38 C38            3.0589     5.4672    -2.2708 C.ar    
  39 C39            3.4666     4.9643    -3.4917 C.ar    
  40 C40            3.9024     3.6546    -3.5895 C.ar    
  41 C41            3.9348     2.8511    -2.4639 C.ar    
  42 Cl42           4.4142     3.0220    -5.1230 Cl      
  43 O43          -13.8068    -4.6837     3.1074 O.3     
  44 C44          -14.0080    -3.5230     0.5815 C.ar    
  45 C45          -14.4906    -2.9780    -0.5935 C.ar    
  46 C46          -14.8558    -1.6455    -0.6388 C.ar    
  47 C47          -14.7332    -0.8562     0.4905 C.ar    
  48 Cl48         -15.1922     0.8171     0.4345 Cl      
  49 H49           -4.2315     0.3769    -0.4702 H       
  50 H50           -3.6557    -1.3073    -0.4843 H       
  51 H51           -3.4280    -1.2502     1.9842 H       
  52 H52           -4.0038     0.4340     1.9984 H       
  53 H53           -6.1485    -0.2906     0.9865 H       
  54 H54           -5.5727    -1.9748     0.9724 H       
  55 H55           -5.3450    -1.9177     3.4409 H       
  56 H56           -5.9207    -0.2335     3.4550 H       
  57 H57          -11.7132    -1.2847     2.9874 H       
  58 H58          -13.7319    -2.7534     3.8401 H       
  59 H59          -14.1536    -0.7865     2.5485 H       
  60 H60            0.9948     3.0845     0.0095 H       
  61 H61            3.5470     3.1008     0.8746 H       
  62 H62            6.9678     0.4439     1.0970 H       
  63 H63            7.4516     1.1897    -0.4450 H       
  64 H64            8.3695     3.1373     0.7849 H       
  65 H65            7.8857     2.3915     2.3270 H       
  66 H66           10.7323     3.0861     1.1158 H       
  67 H67           10.3478     2.6391     2.7961 H       
  68 H68           12.6904     2.0247     2.1641 H       
  69 H69           11.7118     0.6001     2.5931 H       
  70 H70           11.2899    -0.3480    -0.9095 H       
  71 H71           10.8755    -0.8168     0.7577 H       
  72 H72            8.9277     0.2330    -0.3207 H       
  73 H73            9.8983     1.6731    -0.7146 H       
  74 H74            2.7667     5.0552    -0.1934 H       
  75 H75            2.7187     6.4893    -2.1944 H       
  76 H76            3.4446     5.5932    -4.3694 H       
  77 H77            4.2749     1.8289    -2.5396 H       
  78 H78          -13.5145    -5.2564     2.3852 H       
  79 H79          -13.7228    -4.5640     0.6165 H       
  80 H80          -14.5821    -3.5933    -1.4763 H       
  81 H81          -15.2326    -1.2197    -1.5571 H       
@<TRIPOS>BOND
   1    1    2 2
   2    1   21 1
   3    1    5 1
   4    2    3 1
   5    3    4 2
   6    4    5 1
   7    4    6 1
   8    6    7 1
   9    6   49 1
  10    6   50 1
  11    7    8 1
  12    7   51 1
  13    7   52 1
  14    8    9 1
  15    8   53 1
  16    8   54 1
  17    9   10 1
  18    9   55 1
  19    9   56 1
  20   10   11 2
  21   10   14 1
  22   11   12 1
  23   12   13 2
  24   13   14 1
  25   13   15 1
  26   15   16 am
  27   15   57 1
  28   16   17 1
  29   16   18 2
  30   17   19 1
  31   17   43 1
  32   17   58 1
  33   19   20 ar
  34   19   44 ar
  35   20   47 ar
  36   20   59 1
  37   21   22 am
  38   21   60 1
  39   22   23 2
  40   22   24 1
  41   24   25 1
  42   24   36 1
  43   24   61 1
  44   25   26 1
  45   26   27 2
  46   26   28 1
  47   28   29 1
  48   28   62 1
  49   28   63 1
  50   29   30 1
  51   29   64 1
  52   29   65 1
  53   30   31 1
  54   30   35 1
  55   31   32 1
  56   31   66 1
  57   31   67 1
  58   32   33 1
  59   32   68 1
  60   32   69 1
  61   33   34 1
  62   34   35 1
  63   34   70 1
  64   34   71 1
  65   35   72 1
  66   35   73 1
  67   36   37 ar
  68   36   41 ar
  69   37   38 ar
  70   37   74 1
  71   38   39 ar
  72   38   75 1
  73   39   40 ar
  74   39   76 1
  75   40   41 ar
  76   40   42 1
  77   41   77 1
  78   43   78 1
  79   44   45 ar
  80   44   79 1
  81   45   46 ar
  82   45   80 1
  83   46   47 ar
  84   46   81 1
  85   47   48 1

#	End of record

