#	Name: ASD03330143
#	Creating user name:	WinNT
#	Creation time:	15. 06. 2019 20:36

#	Modifying user name:	WinNT
#	Modification time:	15. 06. 2019 20:36

#	Program:	/corina/corina34_cracker 3.40 0067  02.08.2006

@<TRIPOS>MOLECULE
ASD03330143
  40   41    0    0    0
SMALL
NO_CHARGES


@<TRIPOS>ATOM
   1 C1            -0.0002     1.3110    -0.0459 C.2     
   2 C2             0.0462    -0.1308    -0.2936 C.2     
   3 C3             1.1916    -0.8279    -0.0483 C.2     
   4 O4             0.9502     1.8712     0.4701 O.2     
   5 C5            -1.1526    -0.8331    -0.8112 C.ar    
   6 C6            -2.2930    -0.9465    -0.0174 C.ar    
   7 C7            -3.4066    -1.6005    -0.5020 C.ar    
   8 C8            -3.3925    -2.1458    -1.7783 C.ar    
   9 C9            -2.2588    -2.0347    -2.5713 C.ar    
  10 C10           -1.1440    -1.3765    -2.0951 C.ar    
  11 O11           -4.4913    -2.7904    -2.2525 O.3     
  12 C12           -4.4083    -3.3277    -3.5741 C.3     
  13 N13            1.1521    -2.1861     0.0640 N.pl3   
  14 C14           -0.1366    -2.8825     0.0822 C.3     
  15 C15            2.3985    -2.9491     0.1665 C.3     
  16 C16           -1.1975     2.0879    -0.4274 C.ar    
  17 C17           -1.4381     2.3919    -1.7707 C.ar    
  18 C18           -2.5585     3.1175    -2.1205 C.ar    
  19 C19           -3.4435     3.5445    -1.1428 C.ar    
  20 C20           -3.2089     3.2458     0.1909 C.ar    
  21 C21           -2.0964     2.5164     0.5517 C.ar    
  22 F22           -4.5387     4.2549    -1.4906 F       
  23 Cl23          -0.3297     1.8585    -2.9956 Cl      
  24 H24            2.1303    -0.3044     0.0571 H       
  25 H25           -2.3044    -0.5231     0.9761 H       
  26 H26           -4.2904    -1.6887     0.1125 H       
  27 H27           -2.2509    -2.4604    -3.5638 H       
  28 H28           -0.2638    -1.2862    -2.7144 H       
  29 H29           -4.2129    -2.5223    -4.2821 H       
  30 H30           -3.5987    -4.0561    -3.6200 H       
  31 H31           -5.3499    -3.8144    -3.8283 H       
  32 H32           -0.4569    -3.0809    -0.9406 H       
  33 H33           -0.0327    -3.8250     0.6197 H       
  34 H34           -0.8791    -2.2597     0.5811 H       
  35 H35            2.6759    -3.0528     1.2155 H       
  36 H36            2.2567    -3.9372    -0.2712 H       
  37 H37            3.1904    -2.4250    -0.3686 H       
  38 H38           -2.7460     3.3533    -3.1576 H       
  39 H39           -3.9018     3.5816     0.9482 H       
  40 H40           -1.9178     2.2806     1.5904 H       
@<TRIPOS>BOND
   1    1    2 1
   2    1    4 2
   3    1   16 1
   4    2    3 2
   5    2    5 1
   6    3   13 1
   7    3   24 1
   8    5    6 ar
   9    5   10 ar
  10    6    7 ar
  11    6   25 1
  12    7    8 ar
  13    7   26 1
  14    8    9 ar
  15    8   11 1
  16    9   10 ar
  17    9   27 1
  18   10   28 1
  19   11   12 1
  20   12   29 1
  21   12   30 1
  22   12   31 1
  23   13   14 1
  24   13   15 1
  25   14   32 1
  26   14   33 1
  27   14   34 1
  28   15   35 1
  29   15   36 1
  30   15   37 1
  31   16   17 ar
  32   16   21 ar
  33   17   18 ar
  34   17   23 1
  35   18   19 ar
  36   18   38 1
  37   19   20 ar
  38   19   22 1
  39   20   21 ar
  40   20   39 1
  41   21   40 1

#	End of record

