#	Name: ASD05143105
#	Creating user name:	WinNT
#	Creation time:	15. 06. 2019 20:57

#	Modifying user name:	WinNT
#	Modification time:	15. 06. 2019 20:57

#	Program:	/corina/corina34_cracker 3.40 0067  02.08.2006

@<TRIPOS>MOLECULE
ASD05143105
 149  152    0    0    0
SMALL
NO_CHARGES


@<TRIPOS>ATOM
   1 C1             1.9423     3.5832     0.8849 C.2     
   2 C2             2.4882     2.1797     0.9404 C.3     
   3 N3             2.7724     4.6353     1.0283 N.am    
   4 O4             0.7567     3.7661     0.7062 O.2     
   5 C5             2.2417     5.9997     0.9743 C.3     
   6 C6             1.5776     6.2353    -0.3837 C.3     
   7 C7             1.2243     6.1867     2.0702 C.2     
   8 C8             2.6353     6.1685    -1.4871 C.3     
   9 C9             1.9712     6.4041    -2.8452 C.3     
  10 N10            2.9841     6.3402    -3.9018 N.pl3   
  11 C11            2.6201     6.5230    -5.2149 C.2     
  12 N12            3.5707     6.4630    -6.2064 N.pl3   
  13 N13            1.3740     6.7532    -5.5198 N.2     
  14 O14            0.6987     5.2204     2.5810 O.2     
  15 N15            0.8984     7.4277     2.4827 N.am    
  16 C16           -0.0907     7.6095     3.5480 C.3     
  17 C17            0.1543     8.9475     4.2484 C.3     
  18 C18            1.6235     9.0442     4.6637 C.3     
  19 C19            2.1437    10.4534     4.3737 C.3     
  20 N20            1.7541    10.8485     3.0135 N.3     
  21 C21            2.4306    12.0887     2.6107 C.3     
  22 C22            1.5527    12.8468     1.6130 C.3     
  23 C23            2.4132    13.8362     0.8247 C.3     
  24 C24            1.5398    14.9930     0.3348 C.3     
  25 N25            1.0687    14.6905    -1.0314 N.am    
  26 C26            2.3482    16.2647     0.3200 C.2     
  27 N27            2.5505    16.9479     1.4640 N.am    
  28 O28            2.8166    16.6734    -0.7214 O.2     
  29 C29           -0.2745    14.5368    -1.1930 C.2     
  30 O30           -1.0246    14.6401    -0.2456 O.2     
  31 C31           -0.8149    14.2368    -2.5675 C.3     
  32 N32           -2.2056    13.7466    -2.4353 N.am    
  33 C33           -0.7983    15.5109    -3.4146 C.3     
  34 C34           -2.4081    12.4527    -2.8247 C.2     
  35 O35           -1.4865    11.7808    -3.2371 O.2     
  36 C36           -3.7968    11.8754    -2.7320 C.3     
  37 N37           -3.7074    10.4032    -2.8042 N.am    
  38 C38           -4.4348    12.2856    -1.4032 C.3     
  39 C39           -4.1745     9.7116    -1.7290 C.2     
  40 O40           -4.6365    10.2995    -0.7741 O.2     
  41 C41           -4.1108     8.2061    -1.7405 C.3     
  42 C42           -1.2226    15.1832    -4.8230 C.2     
  43 C43           -2.5974    15.1018    -5.3222 C.ar    
  44 C44           -2.4969    14.7702    -6.6855 C.ar    
  45 N45           -1.1561    14.6613    -6.9793 N.pl3   
  46 C46           -0.4124    14.9163    -5.8595 C.2     
  47 C47           -3.8537    15.2782    -4.7389 C.ar    
  48 C48           -4.9805    15.1274    -5.4966 C.ar    
  49 C49           -4.8867    14.7997    -6.8424 C.ar    
  50 C50           -3.6575    14.6220    -7.4382 C.ar    
  51 N51           -4.2600     7.7163    -0.3508 N.am    
  52 C52           -2.7617     7.7534    -2.3026 C.3     
  53 C53           -2.6916     8.0871    -3.7705 C.ar    
  54 C54           -1.7759     9.0213    -4.2214 C.ar    
  55 C55           -1.7060     9.3311    -5.5638 C.ar    
  56 C56           -2.5622     8.6996    -6.4682 C.ar    
  57 C57           -3.4839     7.7579    -6.0063 C.ar    
  58 C58           -3.5393     7.4538    -4.6619 C.ar    
  59 C59           -1.4760     7.5992     2.9545 C.2     
  60 O60           -2.2518     8.5017     3.1877 O.2     
  61 C61           -5.9234    11.9325    -1.4217 C.3     
  62 C62           -6.5278    12.1986    -0.0416 C.3     
  63 N63           -7.9532    11.8605    -0.0593 N.pl3   
  64 C64           -8.7113    12.0187     1.0767 C.2     
  65 N65          -10.0490    11.7014     1.0600 N.pl3   
  66 N66           -8.1620    12.4694     2.1693 N.2     
  67 N67           -1.8438     6.5623     2.1523 N.am    
  68 C68           -3.2113     6.6096     1.5974 C.3     
  69 C69           -3.1462     7.1364     0.1871 C.2     
  70 O70           -2.1236     7.0469    -0.4588 O.2     
  71 C71           -4.0793     7.5361     2.4512 C.3     
  72 C72           -4.0491     7.0653     3.9067 C.3     
  73 C73           -4.9041     7.9779     4.7477 C.2     
  74 C74           -2.4956     9.0167    -7.8631 C.1     
  75 N75           -5.0278     7.7551     6.0711 N.am    
  76 O76           -5.4807     8.9128     4.2336 O.2     
  77 N77           -2.4428     9.2682    -8.9696 N.1     
  78 H78            2.9613     2.0118     1.9079 H       
  79 H79            1.6740     1.4676     0.8056 H       
  80 H80            3.2241     2.0444     0.1477 H       
  81 H81            3.7212     4.4891     1.1672 H       
  82 H82            3.0558     6.7118     1.1091 H       
  83 H83            0.8228     5.4683    -0.5570 H       
  84 H84            1.1056     7.2178    -0.3918 H       
  85 H85            3.3901     6.9356    -1.3138 H       
  86 H86            3.1073     5.1860    -1.4790 H       
  87 H87            1.2165     5.6371    -3.0185 H       
  88 H88            1.4993     7.3866    -2.8533 H       
  89 H89            3.9115     6.1688    -3.6748 H       
  90 H90            4.4981     6.2916    -5.9795 H       
  91 H91            3.3139     6.5920    -7.1329 H       
  92 H92            1.1172     6.8822    -6.4463 H       
  93 H93            1.3187     8.2006     2.0741 H       
  94 H94            0.0009     6.7988     4.2709 H       
  95 H95           -0.0851     9.7636     3.5667 H       
  96 H96           -0.4786     9.0156     5.1332 H       
  97 H97            1.7143     8.8356     5.7297 H       
  98 H98            2.2090     8.3177     4.1002 H       
  99 H99            1.7165    11.1534     5.0918 H       
 100 H100           3.2304    10.4642     4.4580 H       
 101 H101           1.9373    10.1064     2.3549 H       
 102 H102           2.6027    12.7106     3.4892 H       
 103 H103           3.3855    11.8467     2.1440 H       
 104 H104           1.0903    12.1390     0.9249 H       
 105 H105           0.7761    13.3898     2.1517 H       
 106 H106           3.2028    14.2242     1.4683 H       
 107 H107           2.8583    13.3290    -0.0313 H       
 108 H108           0.6833    15.1104     0.9987 H       
 109 H109           1.6847    14.6059    -1.7759 H       
 110 H110           2.1758    16.6211     2.2969 H       
 111 H111           3.0708    17.7665     1.4545 H       
 112 H112          -0.2011    13.4715    -3.0425 H       
 113 H113          -2.9227    14.3048    -2.0959 H       
 114 H114          -1.4871    16.2399    -2.9879 H       
 115 H115           0.2093    15.9264    -3.4261 H       
 116 H116          -4.4021    12.2455    -3.5594 H       
 117 H117          -3.3353     9.9523    -3.5782 H       
 118 H118          -3.9457    11.7551    -0.5862 H       
 119 H119          -4.3179    13.3598    -1.2604 H       
 120 H120          -4.9181     7.8104    -2.3567 H       
 121 H121          -0.7929    14.4404    -7.8512 H       
 122 H122           0.6665    14.8979    -5.8143 H       
 123 H123          -3.9344    15.5325    -3.6923 H       
 124 H124          -5.9520    15.2639    -5.0450 H       
 125 H125          -5.7865    14.6836    -7.4283 H       
 126 H126          -3.5950    14.3675    -8.4860 H       
 127 H127          -5.0905     7.8016     0.1430 H       
 128 H128          -1.9576     8.2662    -1.7747 H       
 129 H129          -2.6552     6.6769    -2.1692 H       
 130 H130          -1.1145     9.5092    -3.5207 H       
 131 H131          -0.9911    10.0607    -5.9144 H       
 132 H132          -4.1492     7.2661    -6.7004 H       
 133 H133          -4.2517     6.7256    -4.3032 H       
 134 H134          -6.4328    12.5450    -2.1657 H       
 135 H135          -6.0438    10.8790    -1.6742 H       
 136 H136          -6.0184    11.5862     0.7024 H       
 137 H137          -6.4074    13.2521     0.2108 H       
 138 H138          -8.3620    11.5252    -0.8725 H       
 139 H139         -10.4578    11.3660     0.2468 H       
 140 H140         -10.5839    11.8130     1.8615 H       
 141 H141          -8.6969    12.5809     2.9708 H       
 142 H142          -1.2387     5.8301     1.9558 H       
 143 H143          -3.6386     5.6068     1.5933 H       
 144 H144          -3.6933     8.5537     2.3905 H       
 145 H145          -5.1051     7.5140     2.0834 H       
 146 H146          -4.4351     6.0477     3.9675 H       
 147 H147          -3.0233     7.0874     4.2745 H       
 148 H148          -4.5666     7.0074     6.4823 H       
 149 H149          -5.5781     8.3425     6.6125 H       
@<TRIPOS>BOND
   1    1    2 1
   2    1    3 am
   3    1    4 2
   4    2   78 1
   5    2   79 1
   6    2   80 1
   7    3    5 1
   8    3   81 1
   9    5    6 1
  10    5    7 1
  11    5   82 1
  12    6    8 1
  13    6   83 1
  14    6   84 1
  15    7   14 2
  16    7   15 am
  17    8    9 1
  18    8   85 1
  19    8   86 1
  20    9   10 1
  21    9   87 1
  22    9   88 1
  23   10   11 1
  24   10   89 1
  25   11   12 1
  26   11   13 2
  27   12   90 1
  28   12   91 1
  29   13   92 1
  30   15   16 1
  31   15   93 1
  32   16   17 1
  33   16   59 1
  34   16   94 1
  35   17   18 1
  36   17   95 1
  37   17   96 1
  38   18   19 1
  39   18   97 1
  40   18   98 1
  41   19   20 1
  42   19   99 1
  43   19  100 1
  44   20   21 1
  45   20  101 1
  46   21   22 1
  47   21  102 1
  48   21  103 1
  49   22   23 1
  50   22  104 1
  51   22  105 1
  52   23   24 1
  53   23  106 1
  54   23  107 1
  55   24   25 1
  56   24   26 1
  57   24  108 1
  58   25   29 am
  59   25  109 1
  60   26   27 am
  61   26   28 2
  62   27  110 1
  63   27  111 1
  64   29   30 2
  65   29   31 1
  66   31   32 1
  67   31   33 1
  68   31  112 1
  69   32   34 am
  70   32  113 1
  71   33   42 1
  72   33  114 1
  73   33  115 1
  74   34   35 2
  75   34   36 1
  76   36   37 1
  77   36   38 1
  78   36  116 1
  79   37   39 am
  80   37  117 1
  81   38   61 1
  82   38  118 1
  83   38  119 1
  84   39   40 2
  85   39   41 1
  86   41   51 1
  87   41   52 1
  88   41  120 1
  89   42   43 1
  90   42   46 2
  91   43   44 ar
  92   43   47 ar
  93   44   45 1
  94   44   50 ar
  95   45   46 1
  96   45  121 1
  97   46  122 1
  98   47   48 ar
  99   47  123 1
 100   48   49 ar
 101   48  124 1
 102   49   50 ar
 103   49  125 1
 104   50  126 1
 105   51   69 am
 106   51  127 1
 107   52   53 1
 108   52  128 1
 109   52  129 1
 110   53   54 ar
 111   53   58 ar
 112   54   55 ar
 113   54  130 1
 114   55   56 ar
 115   55  131 1
 116   56   57 ar
 117   56   74 1
 118   57   58 ar
 119   57  132 1
 120   58  133 1
 121   59   60 2
 122   59   67 am
 123   61   62 1
 124   61  134 1
 125   61  135 1
 126   62   63 1
 127   62  136 1
 128   62  137 1
 129   63   64 1
 130   63  138 1
 131   64   65 1
 132   64   66 2
 133   65  139 1
 134   65  140 1
 135   66  141 1
 136   67   68 1
 137   67  142 1
 138   68   69 1
 139   68   71 1
 140   68  143 1
 141   69   70 2
 142   71   72 1
 143   71  144 1
 144   71  145 1
 145   72   73 1
 146   72  146 1
 147   72  147 1
 148   73   75 am
 149   73   76 2
 150   74   77 3
 151   75  148 1
 152   75  149 1

#	End of record

