#	Name: ASD01001147
#	Creating user name:	WinNT
#	Creation time:	15. 06. 2019 18:55

#	Modifying user name:	WinNT
#	Modification time:	15. 06. 2019 18:55

#	Program:	/corina/corina34_cracker 3.40 0067  02.08.2006

@<TRIPOS>MOLECULE
ASD01001147
  37   38    0    0    0
SMALL
NO_CHARGES


@<TRIPOS>ATOM
   1 C1             0.0134     1.5208    -0.2118 C.2     
   2 N2            -0.1336     0.1875    -0.0814 N.am    
   3 C3             1.0773    -0.6438     0.0255 C.3     
   4 C4             2.4101     0.0756    -0.0202 C.2     
   5 C5             2.3950     1.4185    -0.1548 C.2     
   6 N6             1.2179     2.1046    -0.2465 N.am    
   7 C7             3.6306    -0.6371     0.0755 C.2     
   8 O8             4.0421    -1.2707    -0.8794 O.2     
   9 N9             4.3364    -0.6138     1.2234 N.am    
  10 C10            5.6510    -1.2570     1.2882 C.3     
  11 C11            6.2335    -1.0865     2.6927 C.3     
  12 S12           -1.3852     2.4992    -0.3445 S.2     
  13 C13            3.6985     2.1730    -0.2047 C.3     
  14 C14            1.0048    -1.4054     1.3239 C.ar    
  15 C15            1.3059    -2.7536     1.3510 C.ar    
  16 C16            1.2390    -3.4540     2.5464 C.ar    
  17 C17            0.8697    -2.7985     3.7122 C.ar    
  18 C18            0.5696    -1.4506     3.6798 C.ar    
  19 C19            0.6425    -0.7533     2.4878 C.ar    
  20 O20            1.5343    -4.7802     2.5756 O.3     
  21 H21           -1.0159    -0.2149    -0.0581 H       
  22 H22            1.0592    -1.3698    -0.7872 H       
  23 H23            1.2566     3.0691    -0.3421 H       
  24 H24            3.9738    -0.1712     2.0067 H       
  25 H25            5.5475    -2.3187     1.0643 H       
  26 H26            6.3177    -0.7953     0.5599 H       
  27 H27            5.5669    -1.5481     3.4211 H       
  28 H28            7.2117    -1.5650     2.7409 H       
  29 H29            6.3370    -0.0247     2.9166 H       
  30 H30            4.0810     2.1705    -1.2254 H       
  31 H31            3.5361     3.2008     0.1200 H       
  32 H32            4.4214     1.6934     0.4553 H       
  33 H33            1.5928    -3.2617     0.4422 H       
  34 H34            0.8165    -3.3417     4.6441 H       
  35 H35            0.2817    -0.9400     4.5869 H       
  36 H36            0.4121     0.3016     2.4654 H       
  37 H37            2.4670    -4.9719     2.7441 H       
@<TRIPOS>BOND
   1    1    2 am
   2    1    6 am
   3    1   12 2
   4    2    3 1
   5    2   21 1
   6    3    4 1
   7    3   14 1
   8    3   22 1
   9    4    5 2
  10    4    7 1
  11    5    6 1
  12    5   13 1
  13    6   23 1
  14    7    8 2
  15    7    9 am
  16    9   10 1
  17    9   24 1
  18   10   11 1
  19   10   25 1
  20   10   26 1
  21   11   27 1
  22   11   28 1
  23   11   29 1
  24   13   30 1
  25   13   31 1
  26   13   32 1
  27   14   15 ar
  28   14   19 ar
  29   15   16 ar
  30   15   33 1
  31   16   17 ar
  32   16   20 1
  33   17   18 ar
  34   17   34 1
  35   18   19 ar
  36   18   35 1
  37   19   36 1
  38   20   37 1

#	End of record

