#	Name: ASD04590194
#	Creating user name:	WinNT
#	Creation time:	15. 06. 2019 20:50

#	Modifying user name:	WinNT
#	Modification time:	15. 06. 2019 20:50

#	Program:	/corina/corina34_cracker 3.40 0067  02.08.2006

@<TRIPOS>MOLECULE
ASD04590194
  55   58    0    0    0
SMALL
NO_CHARGES


@<TRIPOS>ATOM
   1 N1            -0.0153     1.2802     0.0091 N.pl3   
   2 N2             0.0021    -0.0041     0.0020 N.2     
   3 C3             1.2455    -0.4440    -0.0122 C.2     
   4 C4             2.0903     0.6961    -0.0142 C.2     
   5 C5             1.2523     1.7667    -0.0004 C.2     
   6 C6             1.6765    -1.8547    -0.0235 C.2     
   7 N7             0.7571    -2.8402    -0.0200 N.am    
   8 N8             3.4930     0.7146    -0.0275 N.am    
   9 O9             2.8611    -2.1284    -0.0359 O.2     
  10 C10            4.1514     1.8906    -0.0274 C.2     
  11 C11            5.6264     1.9101    -0.0414 C.ar    
  12 O12            3.5296     2.9356    -0.0159 O.2     
  13 C13            1.1851    -4.2412    -0.0312 C.3     
  14 C14            0.0894    -5.1159     0.5844 C.3     
  15 C15            0.5160    -6.5839     0.5145 C.3     
  16 N16            0.7411    -6.9635    -0.8861 N.3     
  17 C17            1.8216    -6.1692    -1.4844 C.3     
  18 C18            1.4339    -4.6887    -1.4743 C.3     
  19 C19            6.3414     1.9129     1.1612 C.ar    
  20 C20            7.7233     1.9313     1.1389 C.ar    
  21 C21            8.3992     1.9473    -0.0677 C.ar    
  22 C22            7.7004     1.9452    -1.2612 C.ar    
  23 C23            6.3184     1.9201    -1.2574 C.ar    
  24 F24            5.6831     1.8982     2.3408 F       
  25 F25            5.6376     1.9176    -2.4243 F       
  26 C26            1.0174    -8.4014    -1.0040 C.3     
  27 C27            0.9993    -8.7989    -2.4575 C.ar    
  28 C28            2.1630    -8.7496    -3.2020 C.ar    
  29 C29           -0.1797    -9.2183    -3.0448 C.ar    
  30 C30           -0.1963    -9.5829    -4.3780 C.ar    
  31 C31            0.9661    -9.5278    -5.1242 C.ar    
  32 C32            2.1464    -9.1142    -4.5353 C.ar    
  33 H33           -0.8184     1.8242     0.0160 H       
  34 H34            1.5405     2.8076     0.0024 H       
  35 H35           -0.1879    -2.6218    -0.0102 H       
  36 H36            3.9890    -0.1189    -0.0367 H       
  37 H37            2.1030    -4.3463     0.5472 H       
  38 H38           -0.0625    -4.8302     1.6252 H       
  39 H39           -0.8392    -4.9800     0.0299 H       
  40 H40            1.4372    -6.7218     1.0807 H       
  41 H41           -0.2683    -7.2106     0.9391 H       
  42 H42            2.7366    -6.3090    -0.9089 H       
  43 H43            1.9855    -6.4946    -2.5117 H       
  44 H44            0.5265    -4.5461    -2.0611 H       
  45 H45            2.2427    -4.0978    -1.9042 H       
  46 H46            8.2768     1.9335     2.0662 H       
  47 H47            9.4791     1.9620    -0.0779 H       
  48 H48            8.2361     1.9585    -2.1989 H       
  49 H49            1.9977    -8.6190    -0.5800 H       
  50 H50            0.2552    -8.9634    -0.4641 H       
  51 H51            3.0850    -8.4259    -2.7422 H       
  52 H52           -1.0879    -9.2613    -2.4618 H       
  53 H53           -1.1173    -9.9112    -4.8367 H       
  54 H54            0.9532    -9.8130    -6.1658 H       
  55 H55            3.0546    -9.0712    -5.1183 H       
@<TRIPOS>BOND
   1    1    2 1
   2    1    5 1
   3    1   33 1
   4    2    3 2
   5    3    4 1
   6    3    6 1
   7    4    5 2
   8    4    8 1
   9    5   34 1
  10    6    7 am
  11    6    9 2
  12    7   13 1
  13    7   35 1
  14    8   10 am
  15    8   36 1
  16   10   11 1
  17   10   12 2
  18   11   19 ar
  19   11   23 ar
  20   13   14 1
  21   13   18 1
  22   13   37 1
  23   14   15 1
  24   14   38 1
  25   14   39 1
  26   15   16 1
  27   15   40 1
  28   15   41 1
  29   16   17 1
  30   16   26 1
  31   17   18 1
  32   17   42 1
  33   17   43 1
  34   18   44 1
  35   18   45 1
  36   19   20 ar
  37   19   24 1
  38   20   21 ar
  39   20   46 1
  40   21   22 ar
  41   21   47 1
  42   22   23 ar
  43   22   48 1
  44   23   25 1
  45   26   27 1
  46   26   49 1
  47   26   50 1
  48   27   28 ar
  49   27   29 ar
  50   28   32 ar
  51   28   51 1
  52   29   30 ar
  53   29   52 1
  54   30   31 ar
  55   30   53 1
  56   31   32 ar
  57   31   54 1
  58   32   55 1

#	End of record

