#	Name: ASD09750018
#	Creating user name:	WinNT
#	Creation time:	15. 06. 2019 21:23

#	Modifying user name:	WinNT
#	Modification time:	15. 06. 2019 21:23

#	Program:	/corina/corina34_cracker 3.40 0067  02.08.2006

@<TRIPOS>MOLECULE
ASD09750018
  69   73    0    0    0
SMALL
NO_CHARGES


@<TRIPOS>ATOM
   1 C1             0.0112     1.9301     1.2806 C.ar    
   2 C2            -0.1735     0.5683     0.9977 C.ar    
   3 C3             0.9135    -0.1844     0.5496 C.ar    
   4 N4             2.0952     0.3747     0.3944 N.ar    
   5 C5             2.2965     1.6596     0.6547 C.ar    
   6 C6             1.2566     2.4705     1.1053 C.ar    
   7 C7            -1.4973    -0.0594     1.1717 C.2     
   8 N8            -1.7756    -1.2266     0.5581 N.am    
   9 O9            -2.3373     0.4764     1.8687 O.2     
  10 C10           -0.9115    -1.9096    -0.4218 C.3     
  11 C11           -1.8755    -2.7921    -1.2534 C.3     
  12 C12           -2.8824    -3.2603    -0.1697 C.3     
  13 C13           -2.9884    -2.0329     0.7599 C.3     
  14 C14           -3.0798    -2.4834     2.1951 C.2     
  15 N15           -4.2562    -2.9134     2.6928 N.am    
  16 O16           -2.0948    -2.4589     2.9023 O.2     
  17 N17            3.5576     2.2028     0.4762 N.3     
  18 C18            4.5052     1.1875    -0.0010 C.3     
  19 C19            5.8456     1.8512    -0.3251 C.3     
  20 C20            6.3897     2.5326     0.9335 C.3     
  21 C21            5.3630     3.5506     1.4377 C.3     
  22 C22            4.0366     2.8377     1.7107 C.3     
  23 C23            6.8392     0.7897    -0.8014 C.3     
  24 C24            6.6374     1.4969     1.9998 C.2     
  25 O25            6.0738     0.4301     1.9480 O.2     
  26 C26            7.5885     1.7924     3.1308 C.3     
  27 O27            7.6540     0.6641     4.0053 O.3     
  28 C28            8.4726     0.7668     5.0840 C.ar    
  29 C29            8.5889    -0.3058     5.9912 C.ar    
  30 C30            9.4488    -0.1779     7.1103 C.ar    
  31 C31           10.1682     1.0151     7.2943 C.ar    
  32 C32           10.0319     2.0318     6.3987 C.ar    
  33 C33            9.1936     1.9086     5.2944 C.ar    
  34 C34            7.8693    -1.4975     5.8078 C.ar    
  35 C35            8.0065    -2.5122     6.7049 C.ar    
  36 C36            8.8516    -2.3869     7.8059 C.ar    
  37 C37            9.5652    -1.2470     8.0152 C.ar    
  38 H38           -0.8116     2.5392     1.6247 H       
  39 H39            0.7840    -1.2336     0.3288 H       
  40 H40            1.4318     3.5154     1.3146 H       
  41 H41           -0.4157    -1.1810    -1.0631 H       
  42 H42           -0.1750    -2.5298     0.0892 H       
  43 H43           -2.3757    -2.2054    -2.0240 H       
  44 H44           -1.3494    -3.6407    -1.6906 H       
  45 H45           -3.8490    -3.4934    -0.6163 H       
  46 H46           -2.4908    -4.1194     0.3750 H       
  47 H47           -3.8671    -1.4439     0.4974 H       
  48 H48           -5.0440    -2.9330     2.1272 H       
  49 H49           -4.3150    -3.2034     3.6166 H       
  50 H50            4.6508     0.4342     0.7732 H       
  51 H51            4.1082     0.7136    -0.8987 H       
  52 H52            5.7032     2.5951    -1.1090 H       
  53 H53            7.3230     3.0433     0.6967 H       
  54 H54            5.7261     4.0085     2.3578 H       
  55 H55            5.2131     4.3212     0.6815 H       
  56 H56            3.2993     3.5622     2.0562 H       
  57 H57            4.1844     2.0766     2.4768 H       
  58 H58            6.4497     0.3026    -1.6953 H       
  59 H59            7.7936     1.2630    -1.0321 H       
  60 H60            6.9821     0.0474    -0.0161 H       
  61 H61            8.5802     1.9975     2.7275 H       
  62 H62            7.2349     2.6617     3.6852 H       
  63 H63           10.8265     1.1254     8.1433 H       
  64 H64           10.5871     2.9466     6.5449 H       
  65 H65            9.1041     2.7304     4.5995 H       
  66 H66            7.2101    -1.6084     4.9596 H       
  67 H67            7.4518    -3.4277     6.5615 H       
  68 H68            8.9420    -3.2067     8.5032 H       
  69 H69           10.2160    -1.1638     8.8730 H       
@<TRIPOS>BOND
   1    1    2 ar
   2    1    6 ar
   3    1   38 1
   4    2    3 ar
   5    2    7 1
   6    3    4 ar
   7    3   39 1
   8    4    5 ar
   9    5    6 ar
  10    5   17 1
  11    6   40 1
  12    7    8 am
  13    7    9 2
  14    8   10 1
  15    8   13 1
  16   10   11 1
  17   10   41 1
  18   10   42 1
  19   11   12 1
  20   11   43 1
  21   11   44 1
  22   12   13 1
  23   12   45 1
  24   12   46 1
  25   13   14 1
  26   13   47 1
  27   14   15 am
  28   14   16 2
  29   15   48 1
  30   15   49 1
  31   17   18 1
  32   17   22 1
  33   18   19 1
  34   18   50 1
  35   18   51 1
  36   19   20 1
  37   19   23 1
  38   19   52 1
  39   20   21 1
  40   20   24 1
  41   20   53 1
  42   21   22 1
  43   21   54 1
  44   21   55 1
  45   22   56 1
  46   22   57 1
  47   23   58 1
  48   23   59 1
  49   23   60 1
  50   24   25 2
  51   24   26 1
  52   26   27 1
  53   26   61 1
  54   26   62 1
  55   27   28 1
  56   28   29 ar
  57   28   33 ar
  58   29   30 ar
  59   29   34 ar
  60   30   31 ar
  61   30   37 ar
  62   31   32 ar
  63   31   63 1
  64   32   33 ar
  65   32   64 1
  66   33   65 1
  67   34   35 ar
  68   34   66 1
  69   35   36 ar
  70   35   67 1
  71   36   37 ar
  72   36   68 1
  73   37   69 1

#	End of record

