#	Name: ASD03091954
#	Creating user name:	WinNT
#	Creation time:	15. 06. 2019 20:31

#	Modifying user name:	WinNT
#	Modification time:	15. 06. 2019 20:31

#	Program:	/corina/corina34_cracker 3.40 0067  02.08.2006

@<TRIPOS>MOLECULE
ASD03091954
  35   36    0    0    0
SMALL
NO_CHARGES


@<TRIPOS>ATOM
   1 C1            -0.3279     1.0115    -1.8251 C.3     
   2 O2            -0.2057    -0.2798    -1.2253 O.3     
   3 C3            -1.3073    -0.7779    -0.6023 C.ar    
   4 C4            -2.4806    -0.0427    -0.5743 C.ar    
   5 C5            -3.6002    -0.5501     0.0594 C.ar    
   6 C6            -3.5522    -1.7920     0.6667 C.ar    
   7 Cl7           -4.9612    -2.4231     1.4605 Cl      
   8 C8            -2.3838    -2.5324     0.6425 C.ar    
   9 C9            -1.2594    -2.0314     0.0041 C.ar    
  10 N10           -0.0760    -2.7817    -0.0265 N.am    
  11 C11           -0.1267    -4.1245     0.0772 C.2     
  12 O12           -1.1912    -4.6797     0.2702 O.2     
  13 N13            1.0025    -4.8520    -0.0330 N.am    
  14 C14            0.9655    -6.2384     0.1697 C.ar    
  15 C15           -0.1474    -6.9684    -0.2194 C.ar    
  16 C16           -0.1816    -8.3358    -0.0184 C.ar    
  17 C17            0.8913    -8.9783     0.5704 C.ar    
  18 C18            2.0046    -8.2568     0.9610 C.ar    
  19 C19            2.0492    -6.8875     0.7575 C.ar    
  20 O20            3.1455    -6.1775     1.1359 O.3     
  21 N21            0.8484   -10.4424     0.7838 N.pl3   
  22 O22           -0.1315   -11.0794     0.4407 O.2     
  23 O23            1.7929   -11.0102     1.3025 O.2     
  24 H24            0.6199     1.2891    -2.2862 H       
  25 H25           -1.1083     0.9864    -2.5857 H       
  26 H26           -0.5886     1.7438    -1.0611 H       
  27 H27           -2.5212     0.9273    -1.0473 H       
  28 H28           -4.5142     0.0248     0.0804 H       
  29 H29           -2.3485    -3.5018     1.1173 H       
  30 H30            0.7794    -2.3346    -0.1223 H       
  31 H31            1.8407    -4.4162    -0.2526 H       
  32 H32           -0.9874    -6.4688    -0.6791 H       
  33 H33           -1.0489    -8.9033    -0.3219 H       
  34 H34            2.8411    -8.7617     1.4211 H       
  35 H35            3.1054    -5.8459     2.0434 H       
@<TRIPOS>BOND
   1    1    2 1
   2    1   24 1
   3    1   25 1
   4    1   26 1
   5    2    3 1
   6    3    9 ar
   7    3    4 ar
   8    4    5 ar
   9    4   27 1
  10    5    6 ar
  11    5   28 1
  12    6    7 1
  13    6    8 ar
  14    8    9 ar
  15    8   29 1
  16    9   10 1
  17   10   11 am
  18   10   30 1
  19   11   12 2
  20   11   13 am
  21   13   14 1
  22   13   31 1
  23   14   19 ar
  24   14   15 ar
  25   15   16 ar
  26   15   32 1
  27   16   17 ar
  28   16   33 1
  29   17   18 ar
  30   17   21 1
  31   18   19 ar
  32   18   34 1
  33   19   20 1
  34   20   35 1
  35   21   22 2
  36   21   23 2

#	End of record

