#	Name: ASD04590846
#	Creating user name:	WinNT
#	Creation time:	15. 06. 2019 20:51

#	Modifying user name:	WinNT
#	Modification time:	15. 06. 2019 20:51

#	Program:	/corina/corina34_cracker 3.40 0067  02.08.2006

@<TRIPOS>MOLECULE
ASD04590846
  72   77    0    0    0
SMALL
NO_CHARGES


@<TRIPOS>ATOM
   1 N1            -3.5552    -3.7991    -1.2195 N.ar    
   2 C2            -2.3049    -3.3579    -1.2740 C.ar    
   3 N3            -1.2754    -4.1702    -1.4500 N.ar    
   4 C4            -1.4614    -5.4805    -1.5802 C.ar    
   5 C5            -2.7781    -5.9807    -1.5263 C.ar    
   6 C6            -3.8287    -5.0877    -1.3401 C.ar    
   7 N7            -0.6043    -6.5358    -1.7684 N.pl3   
   8 C8            -1.3106    -7.7248    -1.8415 C.ar    
   9 C9            -2.6777    -7.4359    -1.6959 C.ar    
  10 C10           -0.9304    -9.0520    -2.0202 C.ar    
  11 N11           -1.8390   -10.0079    -2.0512 N.ar    
  12 C12           -3.1309    -9.7618    -1.9166 C.ar    
  13 C13           -3.5942    -8.4876    -1.7364 C.ar    
  14 N14           -2.0694    -1.9993    -1.1426 N.pl3   
  15 C15           -3.1410    -1.1098    -1.0671 C.ar    
  16 N16           -4.3758    -1.5585    -1.2250 N.ar    
  17 C17           -5.4195    -0.7535    -1.1618 C.ar    
  18 C18           -5.2554     0.6031    -0.9258 C.ar    
  19 C19           -3.9690     1.1123    -0.7543 C.ar    
  20 C20           -2.9000     0.2375    -0.8212 C.ar    
  21 N21           -6.3676     1.4508    -0.8610 N.3     
  22 C22            0.8521    -6.4207    -1.8773 C.3     
  23 C23           -7.6132     0.7016    -1.0699 C.3     
  24 C24           -8.7910     1.6763    -1.1376 C.3     
  25 C25           -8.8648     2.4716     0.1688 C.3     
  26 C26           -7.5379     3.2039     0.3870 C.3     
  27 C27           -6.3964     2.1849     0.4105 C.3     
  28 N28           -9.9577     3.4498     0.0869 N.3     
  29 C29          -10.1346     4.1498     1.3663 C.3     
  30 C30           -9.7304     4.4028    -1.0076 C.3     
  31 C31            1.2218    -5.4668    -3.0319 C.3     
  32 C32            1.4294    -5.8006    -0.5928 C.3     
  33 C33            2.1298    -4.4915    -1.0117 C.3     
  34 C34            1.4366    -4.0979    -2.3397 C.3     
  35 C35          -10.7991     3.2100     2.3743 C.3     
  36 C36          -11.0348     5.1373    -1.3235 C.3     
  37 F37            0.3766    -9.3628    -2.1632 F       
  38 H38           -4.8485    -5.4402    -1.2941 H       
  39 H39           -3.8332   -10.5816    -1.9499 H       
  40 H40           -4.6519    -8.2984    -1.6273 H       
  41 H41           -1.1591    -1.6665    -1.1029 H       
  42 H42           -6.4128    -1.1558    -1.2956 H       
  43 H43           -3.8112     2.1646    -0.5696 H       
  44 H44           -1.8900     0.5977    -0.6930 H       
  45 H45            1.2923    -7.4031    -2.0482 H       
  46 H46           -7.5492     0.1438    -2.0042 H       
  47 H47           -7.7629     0.0079    -0.2425 H       
  48 H48           -8.6488     2.3615    -1.9732 H       
  49 H49           -9.7172     1.1187    -1.2770 H       
  50 H50           -9.0460     1.7904     1.0002 H       
  51 H51           -7.3760     3.9131    -0.4247 H       
  52 H52           -7.5688     3.7377     1.3368 H       
  53 H53           -6.5518     1.4843     1.2309 H       
  54 H54           -5.4486     2.7045     0.5514 H       
  55 H55           -9.1621     4.4621     1.7470 H       
  56 H56          -10.7648     5.0265     1.2166 H       
  57 H57           -8.9701     5.1245    -0.7089 H       
  58 H58           -9.3926     3.8649    -1.8934 H       
  59 H59            2.1395    -5.7958    -3.5196 H       
  60 H60            0.4063    -5.4060    -3.7526 H       
  61 H61            0.6259    -5.5853     0.1116 H       
  62 H62            2.1503    -6.4817    -0.1407 H       
  63 H63            1.9769    -3.7190    -0.2580 H       
  64 H64            3.1940    -4.6630    -1.1731 H       
  65 H65            2.0851    -3.4593    -2.9395 H       
  66 H66            0.4819    -3.6085    -2.1469 H       
  67 H67          -11.7268     2.8226     1.9530 H       
  68 H68          -10.1269     2.3812     2.5963 H       
  69 H69          -11.0172     3.7567     3.2917 H       
  70 H70          -11.3846     5.6567    -0.4312 H       
  71 H71          -10.8608     5.8606    -2.1201 H       
  72 H72          -11.7884     4.4180    -1.6441 H       
@<TRIPOS>BOND
   1    1    2 ar
   2    1    6 ar
   3    2    3 ar
   4    2   14 1
   5    3    4 ar
   6    4    5 ar
   7    4    7 1
   8    5    6 ar
   9    5    9 1
  10    6   38 1
  11    7    8 1
  12    7   22 1
  13    8    9 ar
  14    8   10 ar
  15    9   13 ar
  16   10   11 ar
  17   10   37 1
  18   11   12 ar
  19   12   13 ar
  20   12   39 1
  21   13   40 1
  22   14   15 1
  23   14   41 1
  24   15   16 ar
  25   15   20 ar
  26   16   17 ar
  27   17   18 ar
  28   17   42 1
  29   18   19 ar
  30   18   21 1
  31   19   20 ar
  32   19   43 1
  33   20   44 1
  34   21   23 1
  35   21   27 1
  36   22   32 1
  37   22   31 1
  38   22   45 1
  39   23   24 1
  40   23   46 1
  41   23   47 1
  42   24   25 1
  43   24   48 1
  44   24   49 1
  45   25   26 1
  46   25   28 1
  47   25   50 1
  48   26   27 1
  49   26   51 1
  50   26   52 1
  51   27   53 1
  52   27   54 1
  53   28   29 1
  54   28   30 1
  55   29   35 1
  56   29   55 1
  57   29   56 1
  58   30   36 1
  59   30   57 1
  60   30   58 1
  61   31   34 1
  62   31   59 1
  63   31   60 1
  64   32   33 1
  65   32   61 1
  66   32   62 1
  67   33   34 1
  68   33   63 1
  69   33   64 1
  70   34   65 1
  71   34   66 1
  72   35   67 1
  73   35   68 1
  74   35   69 1
  75   36   70 1
  76   36   71 1
  77   36   72 1

#	End of record

