#	Name: ASD01914777
#	Creating user name:	WinNT
#	Creation time:	15. 06. 2019 20:04

#	Modifying user name:	WinNT
#	Modification time:	15. 06. 2019 20:04

#	Program:	/corina/corina34_cracker 3.40 0067  02.08.2006

@<TRIPOS>MOLECULE
ASD01914777
  41   44    0    0    0
SMALL
NO_CHARGES


@<TRIPOS>ATOM
   1 N1            -0.0054     1.4641     0.2532 N.am    
   2 C2             0.0715     0.1184    -0.0038 C.2     
   3 C3            -1.1593    -0.7059    -0.2961 C.3     
   4 C4            -2.3492    -0.0433     0.4071 C.3     
   5 N5            -2.3218     1.4067     0.2406 N.am    
   6 C6            -1.1793     2.1214     0.2822 C.2     
   7 C7             1.2669     1.9068     0.4581 C.2     
   8 C8             2.0743     0.8342     0.3301 C.2     
   9 N9             1.3123    -0.2400     0.0507 N.2     
  10 C10            3.5743     0.8375     0.4751 C.3     
  11 O11           -1.2090     3.3344     0.3450 O.2     
  12 C12           -3.5302     2.0821     0.0293 C.ar    
  13 O13            4.0212     2.1618     0.7722 O.3     
  14 C14            5.3591     2.3397     0.9351 C.ar    
  15 C15            5.8616     3.5996     1.2252 C.ar    
  16 C16            6.2223     1.2604     0.8170 C.ar    
  17 C17            7.5817     1.4426     0.9828 C.ar    
  18 C18            8.0825     2.7017     1.2671 C.ar    
  19 C19            7.2214     3.7789     1.3904 C.ar    
  20 C20           -3.7819     2.6908    -1.1931 C.ar    
  21 C21           -4.9745     3.3561    -1.3996 C.ar    
  22 C22           -5.9189     3.4163    -0.3887 C.ar    
  23 C23           -5.6698     2.8100     0.8311 C.ar    
  24 C24           -4.4807     2.1392     1.0399 C.ar    
  25 F25           -7.0847     4.0679    -0.5925 F       
  26 F26            9.4120     2.8783     1.4298 F       
  27 H27           -1.3364    -0.7357    -1.3712 H       
  28 H28           -1.0237    -1.7185     0.0840 H       
  29 H29           -3.2755    -0.4337    -0.0143 H       
  30 H30           -2.3135    -0.2814     1.4701 H       
  31 H31            1.5698     2.9196     0.6796 H       
  32 H32            3.8625     0.1666     1.2844 H       
  33 H33            4.0300     0.5005    -0.4559 H       
  34 H34            5.1902     4.4400     1.3214 H       
  35 H35            5.8319     0.2780     0.5960 H       
  36 H36            8.2540     0.6024     0.8909 H       
  37 H37            7.6134     4.7606     1.6123 H       
  38 H38           -3.0455     2.6443    -1.9817 H       
  39 H39           -5.1705     3.8299    -2.3501 H       
  40 H40           -6.4075     2.8584     1.6184 H       
  41 H41           -4.2868     1.6664     1.9913 H       
@<TRIPOS>BOND
   1    1    2 1
   2    1    7 1
   3    1    6 am
   4    2    3 1
   5    2    9 2
   6    3    4 1
   7    3   27 1
   8    3   28 1
   9    4    5 1
  10    4   29 1
  11    4   30 1
  12    5    6 am
  13    5   12 1
  14    6   11 2
  15    7    8 2
  16    7   31 1
  17    8    9 1
  18    8   10 1
  19   10   13 1
  20   10   32 1
  21   10   33 1
  22   12   20 ar
  23   12   24 ar
  24   13   14 1
  25   14   15 ar
  26   14   16 ar
  27   15   19 ar
  28   15   34 1
  29   16   17 ar
  30   16   35 1
  31   17   18 ar
  32   17   36 1
  33   18   19 ar
  34   18   26 1
  35   19   37 1
  36   20   21 ar
  37   20   38 1
  38   21   22 ar
  39   21   39 1
  40   22   23 ar
  41   22   25 1
  42   23   24 ar
  43   23   40 1
  44   24   41 1

#	End of record

