#	Name: ASD01884728
#	Creating user name:	WinNT
#	Creation time:	15. 06. 2019 19:48

#	Modifying user name:	WinNT
#	Modification time:	15. 06. 2019 19:48

#	Program:	/corina/corina34_cracker 3.40 0067  02.08.2006

@<TRIPOS>MOLECULE
ASD01884728
  55   58    0    0    0
SMALL
NO_CHARGES


@<TRIPOS>ATOM
   1 C1            -0.0168     1.3860     0.0097 C.2     
   2 C2             0.0021    -0.0041     0.0020 C.2     
   3 C3            -1.2208    -0.6983     0.0099 C.2     
   4 C4            -2.4063     0.0048     0.0250 C.2     
   5 N5            -2.4137     1.3530     0.0323 N.am    
   6 C6            -1.2673     2.0576     0.0311 C.2     
   7 O7            -1.3028     3.2760     0.0385 O.2     
   8 C8            -3.6943     2.0643     0.0478 C.3     
   9 C9             1.2072     2.1293     0.0020 C.1     
  10 N10            2.1781     2.7190    -0.0041 N.1     
  11 C11           -4.1269     2.3042     1.4956 C.3     
  12 C12           -5.4643     3.0471     1.5118 C.3     
  13 C13           -5.9581     3.1772     2.9541 C.3     
  14 C14           -5.2809     4.4409     0.9079 C.3     
  15 C15           -1.2350    -2.1822     0.0016 C.2     
  16 C16           -0.0653    -2.8802    -0.0137 C.2     
  17 C17           -0.2287    -4.3598    -0.0011 C.3     
  18 C18           -1.3000    -4.6647     1.0963 C.3     
  19 C19           -2.5881    -4.1486     0.5538 C.2     
  20 C20           -2.5231    -2.9181     0.0161 C.2     
  21 C21            0.8844    -5.2382     0.4666 C.2     
  22 N22            0.3411    -6.2181     1.1217 N.2     
  23 N23           -1.0751    -6.1053     1.1865 N.pl3   
  24 C24           -2.0680    -7.1749     1.3134 C.3     
  25 C25           -2.4817    -7.6417    -0.0585 C.ar    
  26 C26           -1.8029    -8.6710    -0.6926 C.ar    
  27 C27           -2.2112    -9.0726    -1.9504 C.ar    
  28 N28           -3.2322    -8.4886    -2.5465 N.ar    
  29 C29           -3.9008    -7.5069    -1.9737 C.ar    
  30 C30           -3.5537    -7.0559    -0.7142 C.ar    
  31 H31            0.9390    -0.5411    -0.0101 H       
  32 H32           -3.3432    -0.5323     0.0306 H       
  33 H33           -3.5844     3.0215    -0.4619 H       
  34 H34           -4.4487     1.4655    -0.4624 H       
  35 H35           -4.2368     1.3470     2.0053 H       
  36 H36           -3.3724     2.9030     2.0058 H       
  37 H37           -6.1961     2.4908     0.9260 H       
  38 H38           -5.2263     3.7335     3.5399 H       
  39 H39           -6.9109     3.7064     2.9656 H       
  40 H40           -6.0888     2.1842     3.3843 H       
  41 H41           -4.5491     4.9972     1.4937 H       
  42 H42           -4.9291     4.3483    -0.1196 H       
  43 H43           -6.2337     4.9702     0.9195 H       
  44 H44            0.9016    -2.3995    -0.0340 H       
  45 H45           -0.5876    -4.7000    -0.9725 H       
  46 H46           -1.0510    -4.1680     2.0341 H       
  47 H47           -3.5048    -4.7184     0.5933 H       
  48 H48           -3.4061    -2.4671    -0.4121 H       
  49 H49            1.9396    -5.0872     0.2928 H       
  50 H50           -1.6351    -8.0089     1.8657 H       
  51 H51           -2.9406    -6.7991     1.8477 H       
  52 H52           -0.9654    -9.1527    -0.2098 H       
  53 H53           -1.6877    -9.8736    -2.4510 H       
  54 H54           -4.7316    -7.0526    -2.4931 H       
  55 H55           -4.1053    -6.2516    -0.2501 H       
@<TRIPOS>BOND
   1    1    2 2
   2    1    9 1
   3    1    6 1
   4    2    3 1
   5    2   31 1
   6    3    4 2
   7    3   15 1
   8    4    5 1
   9    4   32 1
  10    5    8 1
  11    5    6 am
  12    6    7 2
  13    8   11 1
  14    8   33 1
  15    8   34 1
  16    9   10 3
  17   11   12 1
  18   11   35 1
  19   11   36 1
  20   12   13 1
  21   12   14 1
  22   12   37 1
  23   13   38 1
  24   13   39 1
  25   13   40 1
  26   14   41 1
  27   14   42 1
  28   14   43 1
  29   15   16 2
  30   15   20 1
  31   16   17 1
  32   16   44 1
  33   17   18 1
  34   17   21 1
  35   17   45 1
  36   18   19 1
  37   18   23 1
  38   18   46 1
  39   19   20 2
  40   19   47 1
  41   20   48 1
  42   21   22 2
  43   21   49 1
  44   22   23 1
  45   23   24 1
  46   24   25 1
  47   24   50 1
  48   24   51 1
  49   25   26 ar
  50   25   30 ar
  51   26   27 ar
  52   26   52 1
  53   27   28 ar
  54   27   53 1
  55   28   29 ar
  56   29   30 ar
  57   29   54 1
  58   30   55 1

#	End of record

