#	Name: ASD01890097
#	Creating user name:	WinNT
#	Creation time:	15. 06. 2019 19:50

#	Modifying user name:	WinNT
#	Modification time:	15. 06. 2019 19:50

#	Program:	/corina/corina34_cracker 3.40 0067  02.08.2006

@<TRIPOS>MOLECULE
ASD01890097
  47   49    0    0    0
SMALL
NO_CHARGES


@<TRIPOS>ATOM
   1 C1             0.3918    -2.2876    -1.3196 C.2     
   2 C2             1.0553    -1.9005    -0.0231 C.3     
   3 C3             1.5554    -0.4576    -0.1170 C.3     
   4 C4             2.1029    -0.0181     1.2424 C.3     
   5 C5             2.4507     1.4474     1.1939 C.2     
   6 O6             0.2312    -1.4612    -2.1863 O.2     
   7 O7            -0.0159    -3.5516    -1.5137 O.3     
   8 C8             2.6487    -0.3711    -1.1506 C.ar    
   9 C9             2.4966     0.4527    -2.2502 C.ar    
  10 C10            3.4994     0.5320    -3.1984 C.ar    
  11 C11            4.6544    -0.2122    -3.0467 C.ar    
  12 C12            4.8069    -1.0354    -1.9467 C.ar    
  13 C13            3.8059    -1.1114    -0.9963 C.ar    
  14 C14            3.1145     2.0829     2.3394 C.ar    
  15 C15            3.4388     3.4446     2.2968 C.ar    
  16 C16            4.0580     4.0332     3.3692 C.ar    
  17 C17            4.3646     3.2802     4.4978 C.ar    
  18 C18            4.0446     1.9273     4.5451 C.ar    
  19 C19            3.4201     1.3305     3.4804 C.ar    
  20 O20            4.9781     3.8671     5.5558 O.3     
  21 C21            4.2270     4.6475     6.3763 C.ar    
  22 C22            2.8970     4.8987     6.0709 C.ar    
  23 C23            2.1356     5.6920     6.9070 C.ar    
  24 C24            2.6978     6.2360     8.0471 C.ar    
  25 C25            4.0230     5.9873     8.3537 C.ar    
  26 C26            4.7872     5.1900     7.5240 C.ar    
  27 O27            2.1824     2.1021     0.2087 O.2     
  28 H28            0.3364    -1.9836     0.7920 H       
  29 H29            1.8979    -2.5655     0.1665 H       
  30 H30            0.7309     0.1947    -0.4048 H       
  31 H31            1.3478    -0.1871     2.0101 H       
  32 H32            2.9965    -0.5960     1.4783 H       
  33 H33           -0.4363    -3.7521    -2.3611 H       
  34 H34            1.5942     1.0341    -2.3687 H       
  35 H35            3.3803     1.1751    -4.0578 H       
  36 H36            5.4376    -0.1508    -3.7879 H       
  37 H37            5.7091    -1.6171    -1.8284 H       
  38 H38            3.9265    -1.7516    -0.1350 H       
  39 H39            3.2018     4.0300     1.4207 H       
  40 H40            4.3085     5.0833     3.3373 H       
  41 H41            4.2851     1.3469     5.4236 H       
  42 H42            3.1681     0.2810     3.5198 H       
  43 H43            2.4575     4.4746     5.1802 H       
  44 H44            1.1003     5.8879     6.6698 H       
  45 H45            2.1010     6.8566     8.6991 H       
  46 H46            4.4597     6.4134     9.2448 H       
  47 H47            5.8210     4.9923     7.7663 H       
@<TRIPOS>BOND
   1    1    2 1
   2    1    6 2
   3    1    7 1
   4    2    3 1
   5    2   28 1
   6    2   29 1
   7    3    4 1
   8    3    8 1
   9    3   30 1
  10    4    5 1
  11    4   31 1
  12    4   32 1
  13    5   14 1
  14    5   27 2
  15    7   33 1
  16    8    9 ar
  17    8   13 ar
  18    9   10 ar
  19    9   34 1
  20   10   11 ar
  21   10   35 1
  22   11   12 ar
  23   11   36 1
  24   12   13 ar
  25   12   37 1
  26   13   38 1
  27   14   15 ar
  28   14   19 ar
  29   15   16 ar
  30   15   39 1
  31   16   17 ar
  32   16   40 1
  33   17   18 ar
  34   17   20 1
  35   18   19 ar
  36   18   41 1
  37   19   42 1
  38   20   21 1
  39   21   22 ar
  40   21   26 ar
  41   22   23 ar
  42   22   43 1
  43   23   24 ar
  44   23   44 1
  45   24   25 ar
  46   24   45 1
  47   25   26 ar
  48   25   46 1
  49   26   47 1

#	End of record

