#	Name: ASD01410170
#	Creating user name:	WinNT
#	Creation time:	15. 06. 2019 19:16

#	Modifying user name:	WinNT
#	Modification time:	15. 06. 2019 19:16

#	Program:	/corina/corina34_cracker 3.40 0067  02.08.2006

@<TRIPOS>MOLECULE
ASD01410170
  46   49    0    0    0
SMALL
NO_CHARGES


@<TRIPOS>ATOM
   1 C1            -0.0760     1.5522    -0.1979 C.3     
   2 C2            -0.0885     0.0223    -0.1977 C.3     
   3 C3             0.8116    -0.4952    -1.3215 C.3     
   4 C4             2.2412     0.0031    -1.1004 C.3     
   5 C5             2.2536     1.5331    -1.1006 C.3     
   6 C6             1.3536     2.0506     0.0233 C.3     
   7 C7             1.6870     4.3676     3.5255 C.ar    
   8 C8             2.2694     3.8998     2.3464 C.ar    
   9 C9             3.3300     2.9947     2.4104 C.ar    
  10 C10            3.7958     2.5683     3.6370 C.ar    
  11 C11            3.2141     3.0359     4.8020 C.ar    
  12 C12            2.1624     3.9332     4.7456 C.ar    
  13 C13            0.9441     4.4416    -1.0828 C.2     
  14 C14            1.1308     5.7369    -0.6275 C.2     
  15 C15            1.3659     3.5575     0.0231 C.2     
  16 C16            1.7647     4.3607     1.0354 C.2     
  17 N17            1.6263     5.6752     0.6516 N.pl3   
  18 S18            0.6541     6.8782    -1.8805 S.3     
  19 C19            0.2212     5.5716    -2.9703 C.2     
  20 C20            0.4345     4.3816    -2.3824 C.2     
  21 O21            1.9468     6.7960     1.4554 O.3     
  22 C22            3.2605     7.3132     1.2344 C.3     
  23 C23           -0.3030     5.7522    -4.3238 C.2     
  24 O24           -0.5752     4.7819    -5.0052 O.2     
  25 O25           -0.4845     6.9950    -4.8166 O.3     
  26 H26           -0.4443     1.9185    -1.1562 H       
  27 H27           -0.7172     1.9209     0.6027 H       
  28 H28            0.2798    -0.3440     0.7606 H       
  29 H29           -1.1069    -0.3328    -0.3552 H       
  30 H30            0.8027    -1.5852    -1.3214 H       
  31 H31            0.4433    -0.1290    -2.2798 H       
  32 H32            2.6095    -0.3631    -0.1421 H       
  33 H33            2.8824    -0.3655    -1.9010 H       
  34 H34            3.2721     1.8881    -0.9430 H       
  35 H35            1.8853     1.8993    -2.0588 H       
  36 H36            1.7219     1.6844     0.9815 H       
  37 H37            0.8690     5.0714     3.4829 H       
  38 H38            3.7847     2.6287     1.5018 H       
  39 H39            4.6161     1.8677     3.6879 H       
  40 H40            3.5822     2.6987     5.7597 H       
  41 H41            1.7127     4.2944     5.6586 H       
  42 H42            0.2326     3.4455    -2.8817 H       
  43 H43            3.3980     8.2197     1.8238 H       
  44 H44            3.9989     6.5695     1.5339 H       
  45 H45            3.3865     7.5449     0.1768 H       
  46 H46           -0.8344     7.0135    -5.7179 H       
@<TRIPOS>BOND
   1    1    2 1
   2    1    6 1
   3    1   26 1
   4    1   27 1
   5    2    3 1
   6    2   28 1
   7    2   29 1
   8    3    4 1
   9    3   30 1
  10    3   31 1
  11    4    5 1
  12    4   32 1
  13    4   33 1
  14    5    6 1
  15    5   34 1
  16    5   35 1
  17    6   15 1
  18    6   36 1
  19    7    8 ar
  20    7   12 ar
  21    7   37 1
  22    8    9 ar
  23    8   16 1
  24    9   10 ar
  25    9   38 1
  26   10   11 ar
  27   10   39 1
  28   11   12 ar
  29   11   40 1
  30   12   41 1
  31   13   15 1
  32   13   14 2
  33   13   20 1
  34   14   18 1
  35   14   17 1
  36   15   16 2
  37   16   17 1
  38   17   21 1
  39   18   19 1
  40   19   20 2
  41   19   23 1
  42   20   42 1
  43   21   22 1
  44   22   43 1
  45   22   44 1
  46   22   45 1
  47   23   24 2
  48   23   25 1
  49   25   46 1

#	End of record

