#	Name: ASD09740684
#	Creating user name:	WinNT
#	Creation time:	15. 06. 2019 21:23

#	Modifying user name:	WinNT
#	Modification time:	15. 06. 2019 21:23

#	Program:	/corina/corina34_cracker 3.40 0067  02.08.2006

@<TRIPOS>MOLECULE
ASD09740684
  72   75    0    0    0
SMALL
NO_CHARGES


@<TRIPOS>ATOM
   1 C1             2.3873    -1.0242     3.8700 C.2     
   2 C2             2.7714     0.4004     3.5634 C.3     
   3 O3             1.4561    -1.5360     3.2948 O.2     
   4 O4             3.0831    -1.7263     4.7781 O.3     
   5 N5             1.8700     0.9403     2.5425 N.am    
   6 C6             2.2681     0.9269     1.1327 C.3     
   7 C7             3.4790     1.8575     0.9093 C.3     
   8 C8             4.6719     0.8911     1.0692 C.3     
   9 C9             4.1287    -0.4724     0.6998 C.ar    
  10 C10            4.7970    -1.6514     0.3555 C.ar    
  11 C11            4.0678    -2.8006     0.0506 C.ar    
  12 C12            2.6891    -2.7676     0.0904 C.ar    
  13 C13            2.0332    -1.5998     0.4317 C.ar    
  14 C14            2.7500    -0.4525     0.7360 C.ar    
  15 S15            7.3082    -0.5220    -0.5205 S.3     
  16 C16            8.7313    -1.4050     0.0255 C.2     
  17 N17            8.3542    -2.4275     0.7408 N.2     
  18 C18            7.0666    -2.5974     0.9099 C.2     
  19 C19            6.2740    -1.6797     0.3143 C.2     
  20 C20           10.1312    -1.0441    -0.2798 C.ar    
  21 C21           11.1748    -1.8247     0.2118 C.ar    
  22 C22           12.4934    -1.4795    -0.0794 C.ar    
  23 C23           12.7598    -0.3482    -0.8655 C.ar    
  24 C24           11.7125     0.4222    -1.3500 C.ar    
  25 C25           10.4083     0.0776    -1.0670 C.ar    
  26 O26           14.0414    -0.0074    -1.1516 O.3     
  27 C27           14.2378     1.1356    -1.9864 C.3     
  28 C28           14.1848     2.4050    -1.1338 C.3     
  29 C29           15.6023     1.0382    -2.6717 C.3     
  30 C30           13.5724    -2.2762     0.4224 C.1     
  31 N31           14.4284    -2.9082     0.8204 N.1     
  32 C32            0.6744     1.4493     2.9004 C.2     
  33 O33           -0.0330     1.9816     2.0680 O.2     
  34 O34            0.2639     1.3680     4.1800 O.3     
  35 C35           -1.0345     1.9375     4.4933 C.3     
  36 C36           -2.1133     1.2311     3.6698 C.3     
  37 C37           -1.3269     1.7515     5.9835 C.3     
  38 C38           -1.0314     3.4300     4.1565 C.3     
  39 C39            2.6569    -3.0926     5.0227 C.3     
  40 H40            2.6946     1.0006     4.4700 H       
  41 H41            3.7967     0.4289     3.1945 H       
  42 H42            1.4344     1.2326     0.5006 H       
  43 H43            3.4589     2.2859    -0.0928 H       
  44 H44            3.5107     2.6409     1.6665 H       
  45 H45            5.4797     1.1722     0.3935 H       
  46 H46            5.0234     0.8914     2.1010 H       
  47 H47            4.5806    -3.7130    -0.2160 H       
  48 H48            2.1214    -3.6557    -0.1452 H       
  49 H49            0.9538    -1.5807     0.4614 H       
  50 H50            6.6650    -3.4171     1.4871 H       
  51 H51           10.9630    -2.6941     0.8166 H       
  52 H52           11.9198     1.2927    -1.9546 H       
  53 H53            9.5975     0.6790    -1.4509 H       
  54 H54           13.4534     1.1726    -2.7423 H       
  55 H55           14.3346     3.2768    -1.7706 H       
  56 H56           13.2127     2.4744    -0.6456 H       
  57 H57           14.9692     2.3680    -0.3779 H       
  58 H58           15.6401     0.1339    -3.2791 H       
  59 H59           15.7521     1.9101    -3.3084 H       
  60 H60           16.3867     1.0012    -1.9158 H       
  61 H61           -2.1155     0.1679     3.9097 H       
  62 H62           -3.0880     1.6587     3.9049 H       
  63 H63           -1.9050     1.3636     2.6081 H       
  64 H64           -0.5583     2.2548     6.5701 H       
  65 H65           -2.3016     2.1791     6.2186 H       
  66 H66           -1.3291     0.6883     6.2234 H       
  67 H67           -0.8231     3.5625     3.0948 H       
  68 H68           -2.0061     3.8575     4.3916 H       
  69 H69           -0.2628     3.9333     4.7432 H       
  70 H70            3.3018    -3.5451     5.7760 H       
  71 H71            1.6265    -3.0936     5.3785 H       
  72 H72            2.7223    -3.6648     4.0973 H       
@<TRIPOS>BOND
   1    1    2 1
   2    1    3 2
   3    1    4 1
   4    2    5 1
   5    2   40 1
   6    2   41 1
   7    4   39 1
   8    5   32 am
   9    5    6 1
  10    6    7 1
  11    6   14 1
  12    6   42 1
  13    7    8 1
  14    7   43 1
  15    7   44 1
  16    8    9 1
  17    8   45 1
  18    8   46 1
  19    9   10 ar
  20    9   14 ar
  21   10   11 ar
  22   10   19 1
  23   11   12 ar
  24   11   47 1
  25   12   13 ar
  26   12   48 1
  27   13   14 ar
  28   13   49 1
  29   15   16 1
  30   15   19 1
  31   16   17 2
  32   16   20 1
  33   17   18 1
  34   18   19 2
  35   18   50 1
  36   20   21 ar
  37   20   25 ar
  38   21   22 ar
  39   21   51 1
  40   22   23 ar
  41   22   30 1
  42   23   24 ar
  43   23   26 1
  44   24   25 ar
  45   24   52 1
  46   25   53 1
  47   26   27 1
  48   27   28 1
  49   27   29 1
  50   27   54 1
  51   28   55 1
  52   28   56 1
  53   28   57 1
  54   29   58 1
  55   29   59 1
  56   29   60 1
  57   30   31 3
  58   32   33 2
  59   32   34 1
  60   34   35 1
  61   35   36 1
  62   35   38 1
  63   35   37 1
  64   36   61 1
  65   36   62 1
  66   36   63 1
  67   37   64 1
  68   37   65 1
  69   37   66 1
  70   38   67 1
  71   38   68 1
  72   38   69 1
  73   39   70 1
  74   39   71 1
  75   39   72 1

#	End of record

