#	Name: ASD01811776
#	Creating user name:	WinNT
#	Creation time:	15. 06. 2019 19:27

#	Modifying user name:	WinNT
#	Modification time:	15. 06. 2019 19:27

#	Program:	/corina/corina34_cracker 3.40 0067  02.08.2006

@<TRIPOS>MOLECULE
ASD01811776
  53   56    0    0    0
SMALL
NO_CHARGES


@<TRIPOS>ATOM
   1 C1            -0.0167     1.3805     0.0096 C.ar    
   2 C2             0.0021    -0.0041     0.0020 C.ar    
   3 C3             1.2075    -0.6836    -0.0127 C.ar    
   4 C4             2.3988     0.0118    -0.0203 C.ar    
   5 C5             2.3881     1.4079    -0.0132 C.ar    
   6 C6             1.1658     2.0836     0.0021 C.ar    
   7 C7            -1.2939    -0.7731     0.0103 C.3     
   8 C8             1.2188    -2.1905    -0.0199 C.3     
   9 C9             1.0853    -2.6871    -1.4364 C.ar    
  10 C10            2.2168    -2.9050    -2.2008 C.ar    
  11 C11            2.0976    -3.3596    -3.4995 C.ar    
  12 C12            0.8400    -3.5983    -4.0373 C.ar    
  13 C13           -0.2942    -3.3791    -3.2672 C.ar    
  14 C14           -0.1684    -2.9293    -1.9674 C.ar    
  15 N15            0.7157    -4.0594    -5.3553 N.pl3   
  16 C16           -0.4429    -4.3302    -5.9978 C.2     
  17 C17           -0.1330    -4.7491    -7.2466 C.2     
  18 C18            1.2605    -4.7343    -7.3726 C.2     
  19 N19            1.7696    -4.3154    -6.2420 N.2     
  20 C20            3.4708     2.4102    -0.0183 C.2     
  21 N21            2.9565     3.6521    -0.0072 N.am    
  22 C22            1.4923     3.5561     0.0064 C.3     
  23 O23            4.6581     2.1501    -0.0300 O.2     
  24 C24            3.7301     4.8962    -0.0086 C.3     
  25 C25            3.9849     5.3366    -1.4515 C.3     
  26 C26            4.6585     4.1985    -2.2208 C.3     
  27 O27            2.7420     5.6637    -2.0762 O.3     
  28 C28            4.8969     6.5651    -1.4562 C.3     
  29 H29           -0.9590     1.9081     0.0170 H       
  30 H30            3.3374    -0.5224    -0.0314 H       
  31 H31           -1.6162    -0.9530    -1.0154 H       
  32 H32           -1.1473    -1.7267     0.5176 H       
  33 H33           -2.0556    -0.1960     0.5345 H       
  34 H34            2.1570    -2.5488     0.4038 H       
  35 H35            0.3854    -2.5629     0.5758 H       
  36 H36            3.1948    -2.7191    -1.7820 H       
  37 H37            2.9817    -3.5289    -4.0963 H       
  38 H38           -1.2738    -3.5635    -3.6829 H       
  39 H39           -1.0503    -2.7586    -1.3678 H       
  40 H40           -1.4371    -4.2306    -5.5877 H       
  41 H41           -0.8369    -5.0431    -8.0111 H       
  42 H42            1.8194    -5.0156    -8.2528 H       
  43 H43            1.0774     4.0343    -0.8809 H       
  44 H44            1.0945     4.0255     0.9061 H       
  45 H45            3.1714     5.6720     0.5149 H       
  46 H46            4.6829     4.7321     0.4949 H       
  47 H47            4.0088     3.3233    -2.2174 H       
  48 H48            4.8400     4.5123    -3.2487 H       
  49 H49            5.6066     3.9491    -1.7442 H       
  50 H50            2.2591     6.3792    -1.6405 H       
  51 H51            5.8449     6.3157    -0.9796 H       
  52 H52            5.0784     6.8789    -2.4841 H       
  53 H53            4.4170     7.3760    -0.9081 H       
@<TRIPOS>BOND
   1    1    2 ar
   2    1    6 ar
   3    1   29 1
   4    2    3 ar
   5    2    7 1
   6    3    4 ar
   7    3    8 1
   8    4    5 ar
   9    4   30 1
  10    5    6 ar
  11    5   20 1
  12    6   22 1
  13    7   31 1
  14    7   32 1
  15    7   33 1
  16    8    9 1
  17    8   34 1
  18    8   35 1
  19    9   10 ar
  20    9   14 ar
  21   10   11 ar
  22   10   36 1
  23   11   12 ar
  24   11   37 1
  25   12   13 ar
  26   12   15 1
  27   13   14 ar
  28   13   38 1
  29   14   39 1
  30   15   16 1
  31   15   19 1
  32   16   17 2
  33   16   40 1
  34   17   18 1
  35   17   41 1
  36   18   19 2
  37   18   42 1
  38   20   21 am
  39   20   23 2
  40   21   22 1
  41   21   24 1
  42   22   43 1
  43   22   44 1
  44   24   25 1
  45   24   45 1
  46   24   46 1
  47   25   26 1
  48   25   27 1
  49   25   28 1
  50   26   47 1
  51   26   48 1
  52   26   49 1
  53   27   50 1
  54   28   51 1
  55   28   52 1
  56   28   53 1

#	End of record

