#	Name: ASD02198589
#	Creating user name:	WinNT
#	Creation time:	15. 06. 2019 20:19

#	Modifying user name:	WinNT
#	Modification time:	15. 06. 2019 20:19

#	Program:	/corina/corina34_cracker 3.40 0067  02.08.2006

@<TRIPOS>MOLECULE
ASD02198589
  39   42    0    0    0
SMALL
NO_CHARGES


@<TRIPOS>ATOM
   1 C1            -0.0438     1.5050    -0.1134 C.2     
   2 C2            -0.0746     0.1658     0.0994 C.2     
   3 N3             1.0701    -0.5371     0.2617 N.pl3   
   4 N4             2.2350    -0.0033     0.2275 N.2     
   5 C5             2.4076     1.2854     0.0290 C.2     
   6 C6             1.2220     2.1380    -0.1595 C.2     
   7 C7             0.9779    -1.9123     0.4775 C.ar    
   8 C8             1.5822    -2.4911     1.6037 C.ar    
   9 C9             1.4827    -3.8688     1.8084 C.ar    
  10 C10            0.7932    -4.6503     0.9055 C.ar    
  11 C11            0.1983    -4.0756    -0.2055 C.ar    
  12 C12            0.2831    -2.7136    -0.4177 C.ar    
  13 C13            3.7650     1.8664    -0.0037 C.2     
  14 N14            4.3077     2.6056    -1.0171 N.pl3   
  15 N15            5.6101     2.9558    -0.6395 N.2     
  16 C16            5.8534     2.4562     0.5459 C.2     
  17 C17            4.7206     1.7704     0.9840 C.2     
  18 C18            3.6748     2.9511    -2.2179 C.ar    
  19 C19            2.9068     2.0127    -2.8946 C.ar    
  20 O20            1.3260     3.3407    -0.3477 O.2     
  21 C21            3.8094     4.2343    -2.7313 C.ar    
  22 C22            3.1837     4.5720    -3.9153 C.ar    
  23 C23            2.4234     3.6339    -4.5893 C.ar    
  24 C24            2.2836     2.3566    -4.0782 C.ar    
  25 C25            2.2972    -1.6740     2.5374 C.1     
  26 N26            2.8643    -1.0258     3.2780 N.1     
  27 H27           -0.9548     2.0694    -0.2479 H       
  28 H28           -1.0248    -0.3459     0.1401 H       
  29 H29            1.9455    -4.3218     2.6727 H       
  30 H30            0.7171    -5.7157     1.0651 H       
  31 H31           -0.3394    -4.6957    -0.9075 H       
  32 H32           -0.1837    -2.2728    -1.2861 H       
  33 H33            6.7773     2.5612     1.0954 H       
  34 H34            4.6144     1.2511     1.9250 H       
  35 H35            2.7971     1.0150    -2.4960 H       
  36 H36            4.4024     4.9677    -2.2050 H       
  37 H37            3.2879     5.5699    -4.3151 H       
  38 H38            1.9345     3.9005    -5.5146 H       
  39 H39            1.6892     1.6261    -4.6069 H       
@<TRIPOS>BOND
   1    1    2 2
   2    1    6 1
   3    1   27 1
   4    2    3 1
   5    2   28 1
   6    3    4 1
   7    3    7 1
   8    4    5 2
   9    5    6 1
  10    5   13 1
  11    6   20 2
  12    7    8 ar
  13    7   12 ar
  14    8    9 ar
  15    8   25 1
  16    9   10 ar
  17    9   29 1
  18   10   11 ar
  19   10   30 1
  20   11   12 ar
  21   11   31 1
  22   12   32 1
  23   13   14 1
  24   13   17 2
  25   14   15 1
  26   14   18 1
  27   15   16 2
  28   16   17 1
  29   16   33 1
  30   17   34 1
  31   18   21 ar
  32   18   19 ar
  33   19   24 ar
  34   19   35 1
  35   21   22 ar
  36   21   36 1
  37   22   23 ar
  38   22   37 1
  39   23   24 ar
  40   23   38 1
  41   24   39 1
  42   25   26 3

#	End of record

