#	Name: ASD03540390
#	Creating user name:	WinNT
#	Creation time:	15. 06. 2019 20:43

#	Modifying user name:	WinNT
#	Modification time:	15. 06. 2019 20:43

#	Program:	/corina/corina34_cracker 3.40 0067  02.08.2006

@<TRIPOS>MOLECULE
ASD03540390
  58   61    0    0    0
SMALL
NO_CHARGES


@<TRIPOS>ATOM
   1 C1            -0.0180     1.4730     0.0101 C.2     
   2 C2             0.0021    -0.0041     0.0020 C.ar    
   3 C3             1.2188    -0.6888    -0.0133 C.ar    
   4 C4             1.2303    -2.0682    -0.0203 C.ar    
   5 C5             0.0396    -2.7731    -0.0127 C.ar    
   6 C6            -1.1697    -2.1009     0.0020 C.ar    
   7 C7            -1.1956    -0.7217     0.0154 C.ar    
   8 O8             1.0256     2.0946     0.0035 O.2     
   9 O9            -1.1936     2.1307     0.0193 O.3     
  10 C10            0.0601    -4.2800    -0.0210 C.3     
  11 N11           -1.1440    -5.4689     3.2513 N.am    
  12 C12           -1.0804    -5.0144     1.9883 C.2     
  13 N13            0.0799    -4.7757     1.3575 N.am    
  14 C14            1.2657    -4.9844     1.9700 C.2     
  15 C15            1.2557    -5.4835     3.3574 C.ar    
  16 C16            2.4328    -5.7234     4.0548 C.ar    
  17 C17            2.3646    -6.1958     5.3649 C.ar    
  18 C18            1.1200    -6.4238     5.9649 C.ar    
  19 C19           -0.0376    -6.1878     5.2786 C.ar    
  20 C20            0.0108    -5.7170     3.9726 C.ar    
  21 O21            2.3133    -4.7668     1.3925 O.2     
  22 O22           -2.1194    -4.8103     1.3911 O.2     
  23 C23           -2.4502    -5.6995     3.8734 C.3     
  24 C24            3.6061    -6.4564     6.1203 C.2     
  25 N25            3.5411    -6.9130     7.3867 N.am    
  26 O26            4.6871    -6.2591     5.6000 O.2     
  27 C27            4.7730    -7.1716     8.1363 C.3     
  28 C28            4.4265    -7.6713     9.5152 C.ar    
  29 C29            4.2781    -9.0273     9.7407 C.ar    
  30 C30            3.9605    -9.4880    11.0038 C.ar    
  31 C31            3.7904    -8.5886    12.0464 C.ar    
  32 C32            3.9398    -7.2285    11.8174 C.ar    
  33 C33            4.2630    -6.7734    10.5538 C.ar    
  34 O34            3.4775    -9.0392    13.2897 O.3     
  35 C35            3.3173    -8.0565    14.3147 C.3     
  36 H36            2.1488    -0.1398    -0.0199 H       
  37 H37            2.1707    -2.5992    -0.0321 H       
  38 H38           -2.0953    -2.6572     0.0071 H       
  39 H39           -2.1401    -0.1983     0.0318 H       
  40 H40           -1.1561     3.0969     0.0244 H       
  41 H41           -0.8298    -4.6526    -0.5283 H       
  42 H42            0.9499    -4.6284    -0.5452 H       
  43 H43            3.3902    -5.5463     3.5874 H       
  44 H44            1.0747    -6.7900     6.9799 H       
  45 H45           -0.9915    -6.3677     5.7520 H       
  46 H46           -3.2395    -5.4489     3.1646 H       
  47 H47           -2.5370    -6.7481     4.1580 H       
  48 H48           -2.5459    -5.0732     4.7603 H       
  49 H49            2.6787    -7.0704     7.8019 H       
  50 H50            5.3643    -7.9244     7.6150 H       
  51 H51            5.3489    -6.2498     8.2180 H       
  52 H52            4.4104    -9.7270     8.9287 H       
  53 H53            3.8444   -10.5472    11.1794 H       
  54 H54            3.8078    -6.5264    12.6274 H       
  55 H55            4.3841    -5.7150    10.3761 H       
  56 H56            4.2461    -7.4979    14.4307 H       
  57 H57            2.5140    -7.3728    14.0402 H       
  58 H58            3.0697    -8.5491    15.2549 H       
@<TRIPOS>BOND
   1    1    2 1
   2    1    8 2
   3    1    9 1
   4    2    3 ar
   5    2    7 ar
   6    3    4 ar
   7    3   36 1
   8    4    5 ar
   9    4   37 1
  10    5    6 ar
  11    5   10 1
  12    6    7 ar
  13    6   38 1
  14    7   39 1
  15    9   40 1
  16   10   13 1
  17   10   41 1
  18   10   42 1
  19   11   12 am
  20   11   20 1
  21   11   23 1
  22   12   13 am
  23   12   22 2
  24   13   14 am
  25   14   15 1
  26   14   21 2
  27   15   16 ar
  28   15   20 ar
  29   16   17 ar
  30   16   43 1
  31   17   18 ar
  32   17   24 1
  33   18   19 ar
  34   18   44 1
  35   19   20 ar
  36   19   45 1
  37   23   46 1
  38   23   47 1
  39   23   48 1
  40   24   25 am
  41   24   26 2
  42   25   27 1
  43   25   49 1
  44   27   28 1
  45   27   50 1
  46   27   51 1
  47   28   29 ar
  48   28   33 ar
  49   29   30 ar
  50   29   52 1
  51   30   31 ar
  52   30   53 1
  53   31   32 ar
  54   31   34 1
  55   32   33 ar
  56   32   54 1
  57   33   55 1
  58   34   35 1
  59   35   56 1
  60   35   57 1
  61   35   58 1

#	End of record

