#	Name: ASD07300745
#	Creating user name:	WinNT
#	Creation time:	15. 06. 2019 21:10

#	Modifying user name:	WinNT
#	Modification time:	15. 06. 2019 21:10

#	Program:	/corina/corina34_cracker 3.40 0067  02.08.2006

@<TRIPOS>MOLECULE
ASD07300745
  48   51    0    0    0
SMALL
NO_CHARGES


@<TRIPOS>ATOM
   1 C1            -0.0034     1.3925     0.2414 C.2     
   2 C2             0.0021    -0.0041     0.0020 C.2     
   3 N3             1.1920     2.0679     0.2266 N.pl3   
   4 N4             1.1445    -0.6201    -0.2279 N.2     
   5 C5             2.3034     0.0470    -0.2402 C.2     
   6 C6             2.3497     1.3753    -0.0177 C.2     
   7 N7            -0.9668     2.2610     0.5003 N.2     
   8 C8            -0.4415     3.4743     0.6475 C.2     
   9 C9             0.9134     3.3822     0.4816 C.2     
  10 N10           -1.1860    -0.7178     0.0100 N.pl3   
  11 C11           -2.4814    -0.0311     0.1360 C.3     
  12 C12           -3.4038    -0.5300    -0.9821 C.3     
  13 O13           -3.4381    -1.9591    -0.9615 O.3     
  14 C14           -2.1747    -2.5786    -1.2141 C.3     
  15 C15           -1.1896    -2.1841    -0.1135 C.3     
  16 C16           -1.2083     4.7357     0.9506 C.3     
  17 O17            3.7227     5.6264     0.8381 O.3     
  18 C18            2.7390     6.4752     0.5127 C.2     
  19 N19            1.6351     5.8067     0.3465 N.2     
  20 C20            1.8895     4.4904     0.5652 C.2     
  21 C21            3.2070     4.3819     0.8748 C.2     
  22 C22            2.8871     7.9674     0.3635 C.3     
  23 C23            2.6232     8.6434     1.7104 C.3     
  24 C24            3.7040     8.2274     2.7102 C.3     
  25 C25            2.6505    10.1628     1.5326 C.3     
  26 H26            3.2208    -0.4896    -0.4320 H       
  27 H27            3.2971     1.8936    -0.0328 H       
  28 H28           -2.9242    -0.2578     1.1059 H       
  29 H29           -2.3372     1.0450     0.0402 H       
  30 H30           -4.4094    -0.1394    -0.8259 H       
  31 H31           -3.0255    -0.1888    -1.9457 H       
  32 H32           -2.2960    -3.6617    -1.2248 H       
  33 H33           -1.7919    -2.2448    -2.1785 H       
  34 H34           -0.1905    -2.5330    -0.3744 H       
  35 H35           -1.5002    -2.6313     0.8308 H       
  36 H36           -1.2778     4.8681     2.0303 H       
  37 H37           -0.6913     5.5894     0.5124 H       
  38 H38           -2.2105     4.6620     0.5283 H       
  39 H39            3.7402     3.4716     1.1058 H       
  40 H40            3.8989     8.2008     0.0319 H       
  41 H41            2.1704     8.3318    -0.3725 H       
  42 H42            1.6457     8.3389     2.0844 H       
  43 H43            4.6815     8.5319     2.3362 H       
  44 H44            3.5160     8.7090     3.6698 H       
  45 H45            3.6845     7.1450     2.8369 H       
  46 H46            1.8805    10.4592     0.8203 H       
  47 H47            2.4626    10.6444     2.4922 H       
  48 H48            3.6280    10.4673     1.1586 H       
@<TRIPOS>BOND
   1    1    2 1
   2    1    3 1
   3    1    7 2
   4    2    4 2
   5    2   10 1
   6    3    6 1
   7    3    9 1
   8    4    5 1
   9    5    6 2
  10    5   26 1
  11    6   27 1
  12    7    8 1
  13    8    9 2
  14    8   16 1
  15    9   20 1
  16   10   11 1
  17   10   15 1
  18   11   12 1
  19   11   28 1
  20   11   29 1
  21   12   13 1
  22   12   30 1
  23   12   31 1
  24   13   14 1
  25   14   15 1
  26   14   32 1
  27   14   33 1
  28   15   34 1
  29   15   35 1
  30   16   36 1
  31   16   37 1
  32   16   38 1
  33   17   18 1
  34   17   21 1
  35   18   19 2
  36   18   22 1
  37   19   20 1
  38   20   21 2
  39   21   39 1
  40   22   23 1
  41   22   40 1
  42   22   41 1
  43   23   24 1
  44   23   25 1
  45   23   42 1
  46   24   43 1
  47   24   44 1
  48   24   45 1
  49   25   46 1
  50   25   47 1
  51   25   48 1

#	End of record

