#	Name: ASD02038806
#	Creating user name:	WinNT
#	Creation time:	15. 06. 2019 20:17

#	Modifying user name:	WinNT
#	Modification time:	15. 06. 2019 20:17

#	Program:	/corina/corina34_cracker 3.40 0067  02.08.2006

@<TRIPOS>MOLECULE
ASD02038806
  51   54    0    0    0
SMALL
NO_CHARGES


@<TRIPOS>ATOM
   1 C1            -1.2822    -0.8506     0.4650 C.2     
   2 C2            -0.0603    -0.0340     0.3014 C.2     
   3 N3             1.1370    -0.6350     0.1536 N.am    
   4 C4             1.2417    -2.0930     0.2503 C.3     
   5 C5             1.2139    -2.6915    -1.1325 C.ar    
   6 C6             2.3338     0.1698    -0.1037 C.3     
   7 O7            -0.1357     1.1792     0.3002 O.2     
   8 N8            -1.3381    -2.1946     0.4958 N.2     
   9 C9            -2.5937    -2.5276     0.6553 C.2     
  10 N10           -3.3113    -1.3910     0.7228 N.pl3   
  11 N11           -2.5058    -0.3915     0.6117 N.2     
  12 C12            2.3964    -3.0127    -1.7680 C.ar    
  13 C13            2.1223     1.0140    -1.3643 C.3     
  14 C14            3.3454     1.9090    -1.5808 C.3     
  15 O15            3.5450     2.7278    -0.4268 O.3     
  16 C16            3.7947     1.9935     0.7735 C.3     
  17 C17            2.5897     1.1019     1.0846 C.3     
  18 C18            0.0034    -2.9231    -1.7601 C.ar    
  19 C19           -0.0296    -3.4727    -3.0293 C.ar    
  20 C20            1.1465    -3.7928    -3.6762 C.ar    
  21 C21            2.3691    -3.5663    -3.0464 C.ar    
  22 C22           -4.7632    -1.3047     0.8988 C.3     
  23 C23            3.6368    -3.9084    -3.7367 C.ar    
  24 N24            4.7904    -3.7832    -3.0939 N.ar    
  25 C25            5.9380    -4.0765    -3.6710 C.ar    
  26 C26            5.9809    -4.5280    -4.9770 C.ar    
  27 C27            4.7968    -4.6734    -5.6861 C.ar    
  28 C28            3.6055    -4.3640    -5.0532 C.ar    
  29 H29            2.1775    -2.3583     0.7423 H       
  30 H30            0.4039    -2.4798     0.8305 H       
  31 H31            3.1918    -0.4874    -0.2447 H       
  32 H32           -2.9835    -3.5327     0.7206 H       
  33 H33            3.3409    -2.8348    -1.2755 H       
  34 H34            1.9944     0.3575    -2.2250 H       
  35 H35            1.2341     1.6340    -1.2427 H       
  36 H36            4.2263     1.2878    -1.7426 H       
  37 H37            3.1822     2.5428    -2.4524 H       
  38 H38            4.6815     1.3735     0.6425 H       
  39 H39            3.9553     2.6883     1.5979 H       
  40 H40            1.7110     1.7238     1.2556 H       
  41 H41            2.7960     0.5084     1.9753 H       
  42 H42           -0.9195    -2.6744    -1.2574 H       
  43 H43           -0.9777    -3.6518    -3.5146 H       
  44 H44            1.1196    -4.2221    -4.6669 H       
  45 H45           -4.9985    -1.2651     1.9623 H       
  46 H46           -5.1354    -0.4041     0.4105 H       
  47 H47           -5.2357    -2.1807     0.4545 H       
  48 H48            6.8577    -3.9622    -3.1164 H       
  49 H49            6.9269    -4.7650    -5.4410 H       
  50 H50            4.8045    -5.0243    -6.7074 H       
  51 H51            2.6656    -4.4659    -5.5751 H       
@<TRIPOS>BOND
   1    1    2 1
   2    1    8 1
   3    1   11 2
   4    2    3 am
   5    2    7 2
   6    3    4 1
   7    3    6 1
   8    4    5 1
   9    4   29 1
  10    4   30 1
  11    5   12 ar
  12    5   18 ar
  13    6   13 1
  14    6   17 1
  15    6   31 1
  16    8    9 2
  17    9   10 1
  18    9   32 1
  19   10   11 1
  20   10   22 1
  21   12   21 ar
  22   12   33 1
  23   13   14 1
  24   13   34 1
  25   13   35 1
  26   14   15 1
  27   14   36 1
  28   14   37 1
  29   15   16 1
  30   16   17 1
  31   16   38 1
  32   16   39 1
  33   17   40 1
  34   17   41 1
  35   18   19 ar
  36   18   42 1
  37   19   20 ar
  38   19   43 1
  39   20   21 ar
  40   20   44 1
  41   21   23 1
  42   22   45 1
  43   22   46 1
  44   22   47 1
  45   23   24 ar
  46   23   28 ar
  47   24   25 ar
  48   25   26 ar
  49   25   48 1
  50   26   27 ar
  51   26   49 1
  52   27   28 ar
  53   27   50 1
  54   28   51 1

#	End of record

