#	Name: ASD01140118
#	Creating user name:	WinNT
#	Creation time:	15. 06. 2019 19:00

#	Modifying user name:	WinNT
#	Modification time:	15. 06. 2019 19:00

#	Program:	/corina/corina34_cracker 3.40 0067  02.08.2006

@<TRIPOS>MOLECULE
ASD01140118
  30   31    0    0    0
SMALL
NO_CHARGES


@<TRIPOS>ATOM
   1 C1            -0.0188     1.5384     0.0105 C.3     
   2 C2             0.0021    -0.0041     0.0020 C.3     
   3 C3             1.5118    -0.3339     0.0140 C.3     
   4 C4             2.1568     0.9703     0.4462 C.2     
   5 O5             1.3723     1.9677    -0.0005 O.3     
   6 O6             3.1823     1.0902     1.0738 O.2     
   7 N7            -0.6538    -0.5372     1.1986 N.am    
   8 C8            -1.9883    -0.7260     1.2081 C.2     
   9 O9            -2.5910    -1.2159     2.3078 O.3     
  10 O10           -2.6474    -0.4539     0.2242 O.2     
  11 C11           -4.0309    -1.3932     2.2466 C.3     
  12 C12           -4.5250    -1.9465     3.5584 C.ar    
  13 C13           -4.9062    -1.0867     4.5715 C.ar    
  14 C14           -5.3595    -1.5942     5.7748 C.ar    
  15 C15           -5.4319    -2.9615     5.9648 C.ar    
  16 C16           -5.0516    -3.8213     4.9514 C.ar    
  17 C17           -4.6025    -3.3138     3.7466 C.ar    
  18 H18           -0.5323     1.9105    -0.8761 H       
  19 H19           -0.5152     1.9009     0.9107 H       
  20 H20           -0.4694    -0.3907    -0.9015 H       
  21 H21            1.7260    -1.1247     0.7330 H       
  22 H22            1.8505    -0.6178    -0.9824 H       
  23 H23           -0.1277    -0.7544     1.9840 H       
  24 H24           -4.5075    -0.4318     2.0552 H       
  25 H25           -4.2777    -2.0875     1.4434 H       
  26 H26           -4.8496    -0.0184     4.4230 H       
  27 H27           -5.6566    -0.9224     6.5665 H       
  28 H28           -5.7854    -3.3580     6.9052 H       
  29 H29           -5.1079    -4.8895     5.1000 H       
  30 H30           -4.3053    -3.9855     2.9548 H       
@<TRIPOS>BOND
   1    1    2 1
   2    1    5 1
   3    1   18 1
   4    1   19 1
   5    2    3 1
   6    2    7 1
   7    2   20 1
   8    3    4 1
   9    3   21 1
  10    3   22 1
  11    4    5 1
  12    4    6 2
  13    7    8 am
  14    7   23 1
  15    8    9 1
  16    8   10 2
  17    9   11 1
  18   11   12 1
  19   11   24 1
  20   11   25 1
  21   12   13 ar
  22   12   17 ar
  23   13   14 ar
  24   13   26 1
  25   14   15 ar
  26   14   27 1
  27   15   16 ar
  28   15   28 1
  29   16   17 ar
  30   16   29 1
  31   17   30 1

#	End of record

