#	Name: ASD04882094
#	Creating user name:	WinNT
#	Creation time:	15. 06. 2019 20:54

#	Modifying user name:	WinNT
#	Modification time:	15. 06. 2019 20:54

#	Program:	/corina/corina34_cracker 3.40 0067  02.08.2006

@<TRIPOS>MOLECULE
ASD04882094
  73   77    0    0    0
SMALL
NO_CHARGES


@<TRIPOS>ATOM
   1 C1             2.1817     1.8473    -0.8015 C.ar    
   2 C2             2.2242     0.4701    -0.7103 C.ar    
   3 C3             1.0464    -0.2512    -0.5597 C.ar    
   4 C4            -0.1703     0.4162    -0.5015 C.ar    
   5 C5            -0.2056     1.7939    -0.5934 C.ar    
   6 C6             0.9684     2.5087    -0.7432 C.ar    
   7 C7            -1.4505    -0.3621    -0.3387 C.3     
   8 N8             1.0857    -1.6443    -0.4675 N.3     
   9 C9             0.6795    -2.0952     0.8708 C.3     
  10 C10            2.4193    -2.1574    -0.8108 C.3     
  11 C11            2.3991    -3.6873    -0.7752 C.3     
  12 N12            1.9929    -4.1383     0.5632 N.3     
  13 C13            0.6593    -3.6252     0.9064 C.3     
  14 C14            2.0321    -5.5272     0.6550 C.ar    
  15 C15            1.2443    -6.3010    -0.1888 C.ar    
  16 C16            2.8681    -6.1415     1.5922 C.ar    
  17 C17            2.9068    -7.5197     1.6831 C.ar    
  18 C18            2.1090    -8.2956     0.8369 C.ar    
  19 C19            1.2796    -7.6753    -0.1011 C.ar    
  20 N20            3.6663    -5.3604     2.4380 N.am    
  21 C21            3.9275    -5.7774     3.6927 C.2     
  22 C22            4.6683    -4.9102     4.6142 C.2     
  23 O23            3.5486    -6.8739     4.0609 O.2     
  24 C24            2.1470    -9.7675     0.9303 C.2     
  25 O25            2.8725   -10.3065     1.7437 O.2     
  26 N26            1.3775   -10.5146     0.1141 N.am    
  27 C27            1.4153   -11.9762     0.2069 C.3     
  28 C28            0.4560   -12.5775    -0.8223 C.3     
  29 C29            0.4954   -14.1039    -0.7254 C.3     
  30 C30           -0.4494   -14.6961    -1.7392 C.ar    
  31 C31            0.0010   -14.9962    -3.0112 C.ar    
  32 C32            4.9987    -5.2077     5.9054 C.2     
  33 C33            5.6995    -4.1001     6.4080 C.2     
  34 C34            5.7653    -3.1868     5.4143 C.2     
  35 O35            5.1479    -3.6809     4.3332 O.3     
  36 C36           -0.8657   -15.5394    -3.9410 C.ar    
  37 C37           -2.1827   -15.7829    -3.5988 C.ar    
  38 C38           -2.6328   -15.4837    -2.3265 C.ar    
  39 C39           -1.7651   -14.9446    -1.3953 C.ar    
  40 H40            3.0973     2.4089    -0.9141 H       
  41 H41            3.1719    -0.0457    -0.7563 H       
  42 H42           -1.1513     2.3135    -0.5481 H       
  43 H43            0.9381     3.5859    -0.8145 H       
  44 H44           -1.6367    -0.5378     0.7208 H       
  45 H45           -2.2778     0.2064    -0.7635 H       
  46 H46           -1.3630    -1.3177    -0.8556 H       
  47 H47            1.3886    -1.7236     1.6105 H       
  48 H48           -0.3159    -1.7130     1.0968 H       
  49 H49            2.6922    -1.8205    -1.8109 H       
  50 H50            3.1482    -1.7865    -0.0902 H       
  51 H51            1.6899    -4.0589    -1.5149 H       
  52 H52            3.3945    -4.0696    -1.0012 H       
  53 H53            0.3863    -3.9621     1.9065 H       
  54 H54           -0.0696    -3.9961     0.1859 H       
  55 H55            0.6027    -5.8237    -0.9148 H       
  56 H56            3.5521    -7.9965     2.4061 H       
  57 H57            0.6626    -8.2738    -0.7550 H       
  58 H58            4.0309    -4.5194     2.1206 H       
  59 H59            0.7988   -10.0846    -0.5348 H       
  60 H60            2.4280   -12.3269     0.0080 H       
  61 H61            1.1140   -12.2846     1.2080 H       
  62 H62           -0.5567   -12.2268    -0.6234 H       
  63 H63            0.7573   -12.2690    -1.8234 H       
  64 H64            1.5081   -14.4545    -0.9243 H       
  65 H65            0.1941   -14.4123     0.2757 H       
  66 H66            1.0299   -14.8059    -3.2786 H       
  67 H67            4.7655    -6.1183     6.4371 H       
  68 H68            6.1088    -3.9972     7.4021 H       
  69 H69            6.2414    -2.2196     5.4796 H       
  70 H70           -0.5140   -15.7731    -4.9350 H       
  71 H71           -2.8600   -16.2067    -4.3255 H       
  72 H72           -3.6618   -15.6737    -2.0592 H       
  73 H73           -2.1168   -14.7108    -0.4013 H       
@<TRIPOS>BOND
   1    1    2 ar
   2    1    6 ar
   3    1   40 1
   4    2    3 ar
   5    2   41 1
   6    3    4 ar
   7    3    8 1
   8    4    5 ar
   9    4    7 1
  10    5    6 ar
  11    5   42 1
  12    6   43 1
  13    7   44 1
  14    7   45 1
  15    7   46 1
  16    8    9 1
  17    8   10 1
  18    9   13 1
  19    9   47 1
  20    9   48 1
  21   10   11 1
  22   10   49 1
  23   10   50 1
  24   11   12 1
  25   11   51 1
  26   11   52 1
  27   12   13 1
  28   12   14 1
  29   13   53 1
  30   13   54 1
  31   14   15 ar
  32   14   16 ar
  33   15   19 ar
  34   15   55 1
  35   16   17 ar
  36   16   20 1
  37   17   18 ar
  38   17   56 1
  39   18   19 ar
  40   18   24 1
  41   19   57 1
  42   20   21 am
  43   20   58 1
  44   21   22 1
  45   21   23 2
  46   22   32 2
  47   22   35 1
  48   24   25 2
  49   24   26 am
  50   26   27 1
  51   26   59 1
  52   27   28 1
  53   27   60 1
  54   27   61 1
  55   28   29 1
  56   28   62 1
  57   28   63 1
  58   29   30 1
  59   29   64 1
  60   29   65 1
  61   30   31 ar
  62   30   39 ar
  63   31   36 ar
  64   31   66 1
  65   32   33 1
  66   32   67 1
  67   33   34 2
  68   33   68 1
  69   34   35 1
  70   34   69 1
  71   36   37 ar
  72   36   70 1
  73   37   38 ar
  74   37   71 1
  75   38   39 ar
  76   38   72 1
  77   39   73 1

#	End of record

