#	Name: ASD04880132
#	Creating user name:	WinNT
#	Creation time:	15. 06. 2019 20:52

#	Modifying user name:	WinNT
#	Modification time:	15. 06. 2019 20:52

#	Program:	/corina/corina34_cracker 3.40 0067  02.08.2006

@<TRIPOS>MOLECULE
ASD04880132
  47   49    0    0    0
SMALL
NO_CHARGES


@<TRIPOS>ATOM
   1 C1            -0.0144     1.2119     0.0087 C.2     
   2 O2             0.0282    -0.0033     0.0295 O.2     
   3 N3             1.1277     1.9254    -0.0464 N.am    
   4 N4             1.2129     3.3091    -0.1865 N.2     
   5 C5             2.4189     3.7621    -0.2140 C.2     
   6 C6             3.3930     2.6133    -0.0816 C.3     
   7 C7             2.4882     1.3710     0.0377 C.3     
   8 C8             4.2829     2.5185    -1.3226 C.3     
   9 C9             4.2441     2.7741     1.1797 C.3     
  10 C10            2.7914     5.1816    -0.3537 C.ar    
  11 C11            1.7985     6.1585    -0.4688 C.ar    
  12 C12            2.1534     7.4876    -0.5995 C.ar    
  13 C13            3.4985     7.8514    -0.6168 C.ar    
  14 C14            4.4841     6.8823    -0.5031 C.ar    
  15 C15            4.1376     5.5542    -0.3655 C.ar    
  16 O16            3.8455     9.1594    -0.7459 O.3     
  17 C17            5.2420     9.4621    -0.7562 C.3     
  18 O18            1.1898     8.4407    -0.7118 O.3     
  19 C19           -0.1682     7.9964    -0.6869 C.3     
  20 C20           -1.3175     1.9055     0.0377 C.ar    
  21 C21           -2.5054     1.1727    -0.0465 C.ar    
  22 C22           -3.7231     1.8317    -0.0186 C.ar    
  23 C23           -3.7630     3.2110     0.0924 C.ar    
  24 C24           -2.5891     3.9395     0.1755 C.ar    
  25 C25           -1.3697     3.2963     0.1551 C.ar    
  26 F26           -4.8733     1.1278    -0.1001 F       
  27 F27           -2.4653    -0.1734    -0.1552 F       
  28 H28            2.6410     0.8733     0.9953 H       
  29 H29            2.6737     0.6831    -0.7872 H       
  30 H30            4.8626     3.4358    -1.4250 H       
  31 H31            4.9598     1.6703    -1.2203 H       
  32 H32            3.6601     2.3817    -2.2066 H       
  33 H33            3.5940     2.8168     2.0536 H       
  34 H34            4.9212     1.9249     1.2717 H       
  35 H35            4.8232     3.6950     1.1123 H       
  36 H36            0.7564     5.8752    -0.4560 H       
  37 H37            5.5254     7.1686    -0.5173 H       
  38 H38            4.9071     4.8022    -0.2723 H       
  39 H39            5.3797    10.5379    -0.8646 H       
  40 H40            5.6925     9.1306     0.1793 H       
  41 H41            5.7189     8.9488    -1.5911 H       
  42 H42           -0.8331     8.8546    -0.7849 H       
  43 H43           -0.3402     7.3072    -1.5137 H       
  44 H44           -0.3671     7.4886     0.2568 H       
  45 H45           -4.7147     3.7211     0.1138 H       
  46 H46           -2.6285     5.0154     0.2614 H       
  47 H47           -0.4558     3.8676     0.2254 H       
@<TRIPOS>BOND
   1    1    2 2
   2    1    3 am
   3    1   20 1
   4    3    4 1
   5    3    7 1
   6    4    5 2
   7    5    6 1
   8    5   10 1
   9    6    7 1
  10    6    8 1
  11    6    9 1
  12    7   28 1
  13    7   29 1
  14    8   30 1
  15    8   31 1
  16    8   32 1
  17    9   33 1
  18    9   34 1
  19    9   35 1
  20   10   11 ar
  21   10   15 ar
  22   11   12 ar
  23   11   36 1
  24   12   13 ar
  25   12   18 1
  26   13   14 ar
  27   13   16 1
  28   14   15 ar
  29   14   37 1
  30   15   38 1
  31   16   17 1
  32   17   39 1
  33   17   40 1
  34   17   41 1
  35   18   19 1
  36   19   42 1
  37   19   43 1
  38   19   44 1
  39   20   21 ar
  40   20   25 ar
  41   21   22 ar
  42   21   27 1
  43   22   23 ar
  44   22   26 1
  45   23   24 ar
  46   23   45 1
  47   24   25 ar
  48   24   46 1
  49   25   47 1

#	End of record

