#	Name: ASD01814077
#	Creating user name:	WinNT
#	Creation time:	15. 06. 2019 19:31

#	Modifying user name:	WinNT
#	Modification time:	15. 06. 2019 19:31

#	Program:	/corina/corina34_cracker 3.40 0067  02.08.2006

@<TRIPOS>MOLECULE
ASD01814077
  40   43    0    0    0
SMALL
NO_CHARGES


@<TRIPOS>ATOM
   1 C1             1.1549     2.2509    -0.5133 C.ar    
   2 C2             0.7786     0.9157    -0.4983 C.ar    
   3 C3             1.7214    -0.0801    -0.3469 C.ar    
   4 C4             3.0684     0.2526    -0.2070 C.ar    
   5 C5             3.4448     1.6060    -0.2229 C.ar    
   6 C6             2.4799     2.6015    -0.3768 C.ar    
   7 N7             4.0210    -0.7324    -0.0539 N.pl3   
   8 C8             5.3253    -0.4649     0.0853 C.2     
   9 C9             5.8156     0.8257     0.0857 C.2     
  10 C10            4.8727     1.9444    -0.0741 C.2     
  11 O11            5.2551     3.1013    -0.0806 O.2     
  12 C12            7.2549     1.0782     0.2423 C.2     
  13 O13            7.7214     2.3430     0.2411 O.3     
  14 O14            8.0248     0.1465     0.3728 O.2     
  15 C15            3.5871    -2.1316    -0.0427 C.3     
  16 C16            3.4445    -2.6248    -1.4595 C.ar    
  17 C17            4.5265    -2.5716    -2.3222 C.ar    
  18 C18            4.3972    -3.0240    -3.6234 C.ar    
  19 C19            3.1824    -3.5312    -4.0621 C.ar    
  20 C20            2.1000    -3.5832    -3.1938 C.ar    
  21 C21            2.2353    -3.1349    -1.8945 C.ar    
  22 N22            3.0478    -3.9902    -5.3804 N.pl3   
  23 F23            1.3400    -1.3761    -0.3337 F       
  24 C24            1.9177    -4.5084    -5.9346 C.2     
  25 C25            2.2359    -4.8177    -7.2135 C.2     
  26 N26            3.5200    -4.4809    -7.3785 N.2     
  27 N27            3.9700    -3.9895    -6.2786 N.2     
  28 F28            5.7085    -2.0774    -1.8933 F       
  29 H29            0.4058     3.0190    -0.6372 H       
  30 H30           -0.2634     0.6529    -0.6059 H       
  31 H31            2.7703     3.6416    -0.3892 H       
  32 H32            6.0171    -1.2861     0.2014 H       
  33 H33            8.6756     2.4591     0.3471 H       
  34 H34            4.3273    -2.7373     0.4801 H       
  35 H35            2.6272    -2.2103     0.4677 H       
  36 H36            5.2405    -2.9821    -4.2968 H       
  37 H37            1.1536    -3.9774    -3.5334 H       
  38 H38            1.3932    -3.1756    -1.2195 H       
  39 H39            0.9614    -4.6455    -5.4518 H       
  40 H40            1.5815    -5.2517    -7.9550 H       
@<TRIPOS>BOND
   1    1    2 ar
   2    1    6 ar
   3    1   29 1
   4    2    3 ar
   5    2   30 1
   6    3    4 ar
   7    3   23 1
   8    4    5 ar
   9    4    7 1
  10    5    6 ar
  11    5   10 1
  12    6   31 1
  13    7    8 1
  14    7   15 1
  15    8    9 2
  16    8   32 1
  17    9   10 1
  18    9   12 1
  19   10   11 2
  20   12   13 1
  21   12   14 2
  22   13   33 1
  23   15   16 1
  24   15   34 1
  25   15   35 1
  26   16   17 ar
  27   16   21 ar
  28   17   18 ar
  29   17   28 1
  30   18   19 ar
  31   18   36 1
  32   19   20 ar
  33   19   22 1
  34   20   21 ar
  35   20   37 1
  36   21   38 1
  37   22   24 1
  38   22   27 1
  39   24   25 2
  40   24   39 1
  41   25   26 1
  42   25   40 1
  43   26   27 2

#	End of record

