#	Name: ASD01001176
#	Creating user name:	WinNT
#	Creation time:	15. 06. 2019 18:55

#	Modifying user name:	WinNT
#	Modification time:	15. 06. 2019 18:55

#	Program:	/corina/corina34_cracker 3.40 0067  02.08.2006

@<TRIPOS>MOLECULE
ASD01001176
  53   56    0    0    0
SMALL
NO_CHARGES


@<TRIPOS>ATOM
   1 C1            -0.0167     1.3779     0.0096 C.ar    
   2 C2             1.2790     2.1474     0.0014 C.3     
   3 C3             1.8667     2.1898     1.4148 C.3     
   4 N4             2.2543     1.4722    -0.8670 N.pl3   
   5 C5             0.8475     2.7681     2.3927 C.3     
   6 C6             3.1388     3.0340     1.4042 C.3     
   7 C7             3.6094     1.8003    -0.7481 C.ar    
   8 C8             0.5891     4.2392     2.0543 C.3     
   9 C9             4.0734     2.5431     0.3265 C.ar    
  10 O10            2.8149     4.4013     1.1400 O.3     
  11 C11            4.4972     1.3692    -1.7281 C.ar    
  12 C12            1.9221     4.9934     2.0839 C.3     
  13 C13            5.4203     2.8468     0.4198 C.ar    
  14 C14            5.8392     1.6776    -1.6289 C.ar    
  15 C15            6.3004     2.4156    -0.5545 C.ar    
  16 C16            7.7657     2.7505    -0.4457 C.3     
  17 C17            8.3287     2.1613     0.8492 C.3     
  18 C18            8.5140     2.1599    -1.6424 C.3     
  19 C19            7.9420     4.2703    -0.4335 C.3     
  20 C20            0.0021    -0.0041     0.0020 C.ar    
  21 C21           -1.1842    -0.7148     0.0095 C.ar    
  22 C22           -2.3947    -0.0416     0.0252 C.ar    
  23 C23           -2.4136     1.3502     0.0333 C.ar    
  24 C24           -1.2217     2.0560     0.0305 C.ar    
  25 O25           -3.5622    -0.7390     0.0321 O.3     
  26 O26           -3.5996     2.0156     0.0482 O.3     
  27 H27            1.1040     3.1619    -0.3567 H       
  28 H28            2.1276     1.1781     1.7252 H       
  29 H29            1.9630     0.8091    -1.5123 H       
  30 H30           -0.0852     2.2090     2.3178 H       
  31 H31            1.2354     2.6920     3.4085 H       
  32 H32            3.6317     2.9598     2.3735 H       
  33 H33            0.1492     4.3136     1.0598 H       
  34 H34           -0.0906     4.6695     2.7899 H       
  35 H35            4.1365     0.7926    -2.5670 H       
  36 H36            1.7556     6.0383     1.8222 H       
  37 H37            2.3540     4.9311     3.0827 H       
  38 H38            5.7850     3.4234     1.2570 H       
  39 H39            6.5284     1.3422    -2.3898 H       
  40 H40            8.2031     1.0786     0.8405 H       
  41 H41            9.3885     2.4036     0.9279 H       
  42 H42            7.7956     2.5821     1.7017 H       
  43 H43            8.1129     2.5796    -2.5649 H       
  44 H44            9.5738     2.4021    -1.5637 H       
  45 H45            8.3884     1.0772    -1.6511 H       
  46 H46            7.4088     4.6910     0.4190 H       
  47 H47            9.0018     4.5125    -0.3548 H       
  48 H48            7.5408     4.6900    -1.3560 H       
  49 H49            0.9452    -0.5301    -0.0102 H       
  50 H50           -1.1668    -1.7946     0.0028 H       
  51 H51           -1.2335     3.1359     0.0368 H       
  52 H52           -3.8914    -0.9461     0.9175 H       
  53 H53           -3.9343     2.2030     0.9358 H       
@<TRIPOS>BOND
   1    1   20 ar
   2    1    2 1
   3    1   24 ar
   4    2    3 1
   5    2    4 1
   6    2   27 1
   7    3    5 1
   8    3    6 1
   9    3   28 1
  10    4    7 1
  11    4   29 1
  12    5    8 1
  13    5   30 1
  14    5   31 1
  15    6    9 1
  16    6   10 1
  17    6   32 1
  18    7    9 ar
  19    7   11 ar
  20    8   12 1
  21    8   33 1
  22    8   34 1
  23    9   13 ar
  24   10   12 1
  25   11   14 ar
  26   11   35 1
  27   12   36 1
  28   12   37 1
  29   13   15 ar
  30   13   38 1
  31   14   15 ar
  32   14   39 1
  33   15   16 1
  34   16   17 1
  35   16   18 1
  36   16   19 1
  37   17   40 1
  38   17   41 1
  39   17   42 1
  40   18   43 1
  41   18   44 1
  42   18   45 1
  43   19   46 1
  44   19   47 1
  45   19   48 1
  46   20   21 ar
  47   20   49 1
  48   21   22 ar
  49   21   50 1
  50   22   23 ar
  51   22   25 1
  52   23   24 ar
  53   23   26 1
  54   24   51 1
  55   25   52 1
  56   26   53 1

#	End of record

