#	Name: ASD01915010
#	Creating user name:	WinNT
#	Creation time:	15. 06. 2019 20:04

#	Modifying user name:	WinNT
#	Modification time:	15. 06. 2019 20:04

#	Program:	/corina/corina34_cracker 3.40 0067  02.08.2006

@<TRIPOS>MOLECULE
ASD01915010
  43   46    0    0    0
SMALL
NO_CHARGES


@<TRIPOS>ATOM
   1 C1            -0.2241     1.4604    -1.1266 C.ar    
   2 C2            -0.2354     0.0852    -1.2808 C.ar    
   3 C3             0.9625    -0.6066    -1.1446 C.ar    
   4 C4             2.1193     0.0955    -0.8614 C.ar    
   5 N5             2.0961     1.4075    -0.7198 N.ar    
   6 C6             0.9760     2.0992    -0.8427 C.ar    
   7 O7             0.9993     3.4476    -0.6897 O.3     
   8 C8             2.2640     4.0458    -0.3988 C.3     
   9 C9             2.0952     5.5373    -0.2643 C.2     
  10 C10            0.8931     6.2458    -0.3941 C.2     
  11 N11            3.0472     6.4013     0.0008 N.2     
  12 C12            1.2295     7.5545    -0.1946 C.2     
  13 C13            0.4214     8.7833    -0.1959 C.2     
  14 N14            2.5833     7.5880     0.0583 N.pl3   
  15 C15            3.2695     8.8515     0.3538 C.3     
  16 C16            2.5536     9.9939    -0.3654 C.3     
  17 N17            1.1054     9.9530    -0.1758 N.am    
  18 O18           -0.7945     8.7515    -0.2146 O.2     
  19 C19            3.2475     9.1041     1.8626 C.3     
  20 F20            0.9959    -1.9496    -1.2869 F       
  21 C21            0.4102    11.1476     0.0361 C.ar    
  22 C22            0.3126    12.0861    -0.9836 C.ar    
  23 C23           -0.3748    13.2651    -0.7727 C.ar    
  24 C24           -0.9663    13.5133     0.4521 C.ar    
  25 C25           -0.8715    12.5805     1.4714 C.ar    
  26 C26           -0.1886    11.3954     1.2639 C.ar    
  27 F27           -1.4501    12.8259     2.6673 F       
  28 H28           -1.1359     2.0299    -1.2300 H       
  29 H29           -1.1538    -0.4385    -1.5015 H       
  30 H30            3.0533    -0.4361    -0.7543 H       
  31 H31            2.6525     3.6385     0.5346 H       
  32 H32            2.9623     3.8307    -1.2077 H       
  33 H33           -0.0868     5.8442    -0.6063 H       
  34 H34            4.3019     8.7944     0.0086 H       
  35 H35            2.9319    10.9424     0.0158 H       
  36 H36            2.7730     9.9319    -1.4313 H       
  37 H37            3.7549     8.2869     2.3753 H       
  38 H38            3.7572    10.0425     2.0813 H       
  39 H39            2.2147     9.1630     2.2061 H       
  40 H40            0.7744    11.8939    -1.9408 H       
  41 H41           -0.4501    13.9946    -1.5656 H       
  42 H42           -1.5030    14.4364     0.6144 H       
  43 H43           -0.1182    10.6657     2.0570 H       
@<TRIPOS>BOND
   1    1    2 ar
   2    1    6 ar
   3    1   28 1
   4    2    3 ar
   5    2   29 1
   6    3    4 ar
   7    3   20 1
   8    4    5 ar
   9    4   30 1
  10    5    6 ar
  11    6    7 1
  12    7    8 1
  13    8    9 1
  14    8   31 1
  15    8   32 1
  16    9   11 2
  17    9   10 1
  18   10   12 2
  19   10   33 1
  20   11   14 1
  21   12   14 1
  22   12   13 1
  23   13   17 am
  24   13   18 2
  25   14   15 1
  26   15   16 1
  27   15   19 1
  28   15   34 1
  29   16   17 1
  30   16   35 1
  31   16   36 1
  32   17   21 1
  33   19   37 1
  34   19   38 1
  35   19   39 1
  36   21   22 ar
  37   21   26 ar
  38   22   23 ar
  39   22   40 1
  40   23   24 ar
  41   23   41 1
  42   24   25 ar
  43   24   42 1
  44   25   26 ar
  45   25   27 1
  46   26   43 1

#	End of record

