#	Name: ASD01901213
#	Creating user name:	WinNT
#	Creation time:	15. 06. 2019 19:53

#	Modifying user name:	WinNT
#	Modification time:	15. 06. 2019 19:53

#	Program:	/corina/corina34_cracker 3.40 0067  02.08.2006

@<TRIPOS>MOLECULE
ASD01901213
  29   31    0    0    0
SMALL
NO_CHARGES


@<TRIPOS>ATOM
   1 C1            -0.0167     1.3797     0.0096 C.ar    
   2 C2             0.0021    -0.0041     0.0020 C.ar    
   3 C3             1.2036    -0.6808    -0.0127 C.ar    
   4 C4             2.4045     0.0347    -0.0204 C.ar    
   5 C5             2.3774     1.4323    -0.0131 C.ar    
   6 C6             1.1681     2.0949     0.0022 C.ar    
   7 C7             3.6563    -0.6607    -0.0351 C.1     
   8 C8             4.6825    -1.2308    -0.0473 C.1     
   9 C9             5.9343    -1.9261    -0.0620 C.ar    
  10 C10            7.2089    -1.2044    -0.0704 C.ar    
  11 C11            8.4093    -1.9554    -0.0844 C.ar    
  12 N12            8.3589    -3.2913    -0.0902 N.ar    
  13 C13            7.2272    -3.9523    -0.0834 C.ar    
  14 C14            5.9921    -3.3204    -0.0632 C.ar    
  15 C15            7.2609     0.1926    -0.0652 C.ar    
  16 C16            8.4716     0.8211    -0.0738 C.ar    
  17 C17            9.6550     0.0880    -0.0880 C.ar    
  18 C18            9.6383    -1.2737    -0.0924 C.ar    
  19 H19           -0.9608     1.9042     0.0169 H       
  20 H20           -0.9266    -0.5554     0.0080 H       
  21 H21            1.2167    -1.7607    -0.0179 H       
  22 H22            3.3012     1.9918    -0.0185 H       
  23 H23            1.1455     3.1746     0.0082 H       
  24 H24            7.2573    -5.0319    -0.0891 H       
  25 H25            5.0828    -3.9029    -0.0533 H       
  26 H26            6.3486     0.7704    -0.0550 H       
  27 H27            8.5125     1.9004    -0.0698 H       
  28 H28           10.6017     0.6076    -0.0952 H       
  29 H29           10.5655    -1.8274    -0.1035 H       
@<TRIPOS>BOND
   1    1    2 ar
   2    1    6 ar
   3    1   19 1
   4    2    3 ar
   5    2   20 1
   6    3    4 ar
   7    3   21 1
   8    4    5 ar
   9    4    7 1
  10    5    6 ar
  11    5   22 1
  12    6   23 1
  13    7    8 3
  14    8    9 1
  15    9   10 ar
  16    9   14 ar
  17   10   11 ar
  18   10   15 ar
  19   11   12 ar
  20   11   18 ar
  21   12   13 ar
  22   13   14 ar
  23   13   24 1
  24   14   25 1
  25   15   16 ar
  26   15   26 1
  27   16   17 ar
  28   16   27 1
  29   17   18 ar
  30   17   28 1
  31   18   29 1

#	End of record

