#	Name: ASD02398058
#	Creating user name:	WinNT
#	Creation time:	15. 06. 2019 20:20

#	Modifying user name:	WinNT
#	Modification time:	15. 06. 2019 20:20

#	Program:	/corina/corina34_cracker 3.40 0067  02.08.2006

@<TRIPOS>MOLECULE
ASD02398058
  54   58    0    0    0
SMALL
NO_CHARGES


@<TRIPOS>ATOM
   1 C1             0.0209     1.3019    -0.2108 C.ar    
   2 C2            -0.0714    -0.0602     0.0795 C.ar    
   3 C3            -1.3176    -0.6308     0.3275 C.ar    
   4 C4            -2.4537     0.1521     0.2850 C.ar    
   5 C5            -2.3578     1.5014    -0.0036 C.ar    
   6 C6            -1.1236     2.0766    -0.2452 C.ar    
   7 C7            -3.8022    -0.4651     0.5532 C.3     
   8 C8            -4.1068    -0.3855     2.0269 C.2     
   9 O9            -3.3107     0.1204     2.7820 O.2     
  10 O10           -5.2627    -0.8767     2.5007 O.3     
  11 C11            1.1530    -0.8970     0.1234 C.ar    
  12 C12            2.1035    -0.6939     1.1223 C.ar    
  13 C13            1.3541    -1.8924    -0.8304 C.ar    
  14 C14            2.4949    -2.6683    -0.7846 C.ar    
  15 C15            3.4370    -2.4593     0.2061 C.ar    
  16 C16            3.2402    -1.4755     1.1585 C.ar    
  17 C17            1.8905     0.3774     2.1605 C.3     
  18 N18            2.9504     0.2980     3.1687 N.am    
  19 C19            2.9339    -0.5622     4.3695 C.3     
  20 F20            1.2260     1.8629    -0.4519 F       
  21 C21            4.1010     0.9911     3.1515 C.2     
  22 O22            4.7986     0.8645     4.2948 O.3     
  23 C23            4.3728    -0.3786     4.9273 C.3     
  24 O24            4.4715     1.6589     2.2063 O.2     
  25 C25            4.1423    -0.1677     6.4309 C.3     
  26 C26            2.7174     0.3204     6.5673 C.ar    
  27 C27            2.0262     0.0844     5.3964 C.ar    
  28 C28            2.0765     0.9210     7.6394 C.ar    
  29 C29            0.7481     1.2844     7.5400 C.ar    
  30 C30            0.0545     1.0481     6.3676 C.ar    
  31 C31            0.6909     0.4438     5.3006 C.ar    
  32 C32            4.6800    -3.3103     0.2515 C.3     
  33 F33            4.6533    -4.2313    -0.8012 F       
  34 F34            5.8091    -2.4935     0.1280 F       
  35 F35            4.7314    -3.9959     1.4699 F       
  36 H36           -1.3949    -1.6844     0.5523 H       
  37 H37           -3.2500     2.1092    -0.0358 H       
  38 H38           -1.0546     3.1307    -0.4697 H       
  39 H39           -4.5665     0.0750    -0.0055 H       
  40 H40           -3.7927    -1.5090     0.2399 H       
  41 H41           -5.4135    -0.8028     3.4530 H       
  42 H42            0.6186    -2.0570    -1.6040 H       
  43 H43            2.6517    -3.4403    -1.5234 H       
  44 H44            3.9794    -1.3163     1.9297 H       
  45 H45            1.9162     1.3567     1.6826 H       
  46 H46            0.9221     0.2321     2.6392 H       
  47 H47            2.6690    -1.5974     4.1541 H       
  48 H48            5.0313    -1.2175     4.7019 H       
  49 H49            4.2700    -1.1086     6.9662 H       
  50 H50            4.8344     0.5812     6.8158 H       
  51 H51            2.6179     1.1056     8.5554 H       
  52 H52            0.2516     1.7530     8.3769 H       
  53 H53           -0.9853     1.3291     6.2886 H       
  54 H54            0.1487     0.2594     4.3850 H       
@<TRIPOS>BOND
   1    1    2 ar
   2    1   20 1
   3    1    6 ar
   4    2    3 ar
   5    2   11 1
   6    3    4 ar
   7    3   36 1
   8    4    5 ar
   9    4    7 1
  10    5    6 ar
  11    5   37 1
  12    6   38 1
  13    7    8 1
  14    7   39 1
  15    7   40 1
  16    8    9 2
  17    8   10 1
  18   10   41 1
  19   11   12 ar
  20   11   13 ar
  21   12   17 1
  22   12   16 ar
  23   13   14 ar
  24   13   42 1
  25   14   15 ar
  26   14   43 1
  27   15   16 ar
  28   15   32 1
  29   16   44 1
  30   17   18 1
  31   17   45 1
  32   17   46 1
  33   18   21 am
  34   18   19 1
  35   19   27 1
  36   19   23 1
  37   19   47 1
  38   21   22 1
  39   21   24 2
  40   22   23 1
  41   23   25 1
  42   23   48 1
  43   25   26 1
  44   25   49 1
  45   25   50 1
  46   26   27 ar
  47   26   28 ar
  48   27   31 ar
  49   28   29 ar
  50   28   51 1
  51   29   30 ar
  52   29   52 1
  53   30   31 ar
  54   30   53 1
  55   31   54 1
  56   32   33 1
  57   32   34 1
  58   32   35 1

#	End of record

