#	Name: ASD04660040
#	Creating user name:	WinNT
#	Creation time:	15. 06. 2019 20:52

#	Modifying user name:	WinNT
#	Modification time:	15. 06. 2019 20:52

#	Program:	/corina/corina34_cracker 3.40 0067  02.08.2006

@<TRIPOS>MOLECULE
ASD04660040
  73   76    0    0    0
SMALL
NO_CHARGES


@<TRIPOS>ATOM
   1 C1             0.3424    -0.6186     1.1166 C.3     
   2 N2            -0.2428    -0.1635    -0.1523 N.3     
   3 C3            -0.2347     1.3036    -0.2365 C.3     
   4 C4             1.2057     1.8101    -0.1314 C.3     
   5 N5             1.7909     1.3550     1.1375 N.3     
   6 C6             1.7829    -0.1121     1.2216 C.3     
   7 C7             3.1501     1.8848     1.3103 C.3     
   8 C8             3.0755     3.3597     1.7105 C.3     
   9 O9             2.4427     3.4756     2.9865 O.3     
  10 C10           -1.6019    -0.6933    -0.3252 C.3     
  11 C11           -1.5473    -2.2200    -0.4095 C.3     
  12 C12           -2.9671    -2.7746    -0.5420 C.3     
  13 O13           -2.9263    -4.2025    -0.5036 O.3     
  14 O14           -0.7766    -2.6069    -1.5489 O.3     
  15 C15           -4.1133    -4.8571    -0.6098 C.ar    
  16 C16           -5.2941    -4.1344    -0.7483 C.ar    
  17 C17           -6.5043    -4.7838    -0.8575 C.ar    
  18 C18           -6.5530    -6.1731    -0.8297 C.ar    
  19 C19           -5.3621    -6.9033    -0.6900 C.ar    
  20 C20           -4.1430    -6.2392    -0.5856 C.ar    
  21 N21           -7.5903    -7.0843    -0.9149 N.pl3   
  22 C22           -7.1133    -8.3509    -0.8360 C.2     
  23 C23           -5.7557    -8.3249    -0.6970 C.2     
  24 C24           -7.9553    -9.5995    -0.8927 C.3     
  25 C25           -4.8633    -9.4833    -0.5779 C.2     
  26 O26           -4.3857    -9.9880    -1.5758 O.2     
  27 O27           -4.5726    -9.9882     0.6382 O.3     
  28 C28           -3.6828   -11.1349     0.6804 C.3     
  29 C29           -3.4717   -11.5635     2.1339 C.3     
  30 C30           -8.9414    -6.7464    -1.0615 C.ar    
  31 C31           -9.6247    -7.0965    -2.2186 C.ar    
  32 C32          -10.9573    -6.7622    -2.3599 C.ar    
  33 C33          -11.6110    -6.0792    -1.3507 C.ar    
  34 C34          -10.9334    -5.7292    -0.1972 C.ar    
  35 C35           -9.6023    -6.0656    -0.0475 C.ar    
  36 C36          -13.0649    -5.7152    -1.5086 C.3     
  37 H37           -0.2426    -0.2261     1.9483 H       
  38 H38            0.3367    -1.7081     1.1497 H       
  39 H39           -0.6612     1.6155    -1.1898 H       
  40 H40           -0.8263     1.7179     0.5799 H       
  41 H41            1.7908     1.4176    -0.9632 H       
  42 H42            1.2115     2.8996    -0.1645 H       
  43 H43            2.2094    -0.4240     2.1750 H       
  44 H44            2.3745    -0.5264     0.4053 H       
  45 H45            3.6629     1.3222     2.0904 H       
  46 H46            3.6990     1.7899     0.3734 H       
  47 H47            4.0828     3.7726     1.7657 H       
  48 H48            2.4979     3.9091     0.9672 H       
  49 H49            2.3611     4.3854     3.3039 H       
  50 H50           -2.2177    -0.3981     0.5244 H       
  51 H51           -2.0336    -0.2940    -1.2429 H       
  52 H52           -1.0848    -2.6175     0.4940 H       
  53 H53           -3.5793    -2.4064     0.2813 H       
  54 H54           -3.3976    -2.4487    -1.4889 H       
  55 H55           -1.1305    -2.2871    -2.3901 H       
  56 H56           -5.2618    -3.0551    -0.7701 H       
  57 H57           -7.4153    -4.2136    -0.9643 H       
  58 H58           -3.2265    -6.8003    -0.4781 H       
  59 H59           -8.0535    -9.9247    -1.9284 H       
  60 H60           -7.4781   -10.3863    -0.3085 H       
  61 H61           -8.9432    -9.3905    -0.4823 H       
  62 H62           -4.1245   -11.9584     0.1193 H       
  63 H63           -2.7235   -10.8669     0.2376 H       
  64 H64           -4.4310   -11.8315     2.5766 H       
  65 H65           -2.8038   -12.4242     2.1655 H       
  66 H66           -3.0300   -10.7400     2.6950 H       
  67 H67           -9.1145    -7.6293    -3.0074 H       
  68 H68          -11.4892    -7.0342    -3.2596 H       
  69 H69          -11.4468    -5.1958     0.5891 H       
  70 H70           -9.0737    -5.7922     0.8538 H       
  71 H71          -13.6858    -6.5210    -1.1170 H       
  72 H72          -13.2714    -4.7972    -0.9583 H       
  73 H73          -13.2890    -5.5641    -2.5645 H       
@<TRIPOS>BOND
   1    1    2 1
   2    1    6 1
   3    1   37 1
   4    1   38 1
   5    2    3 1
   6    2   10 1
   7    3    4 1
   8    3   39 1
   9    3   40 1
  10    4    5 1
  11    4   41 1
  12    4   42 1
  13    5    6 1
  14    5    7 1
  15    6   43 1
  16    6   44 1
  17    7    8 1
  18    7   45 1
  19    7   46 1
  20    8    9 1
  21    8   47 1
  22    8   48 1
  23    9   49 1
  24   10   11 1
  25   10   50 1
  26   10   51 1
  27   11   12 1
  28   11   14 1
  29   11   52 1
  30   12   13 1
  31   12   53 1
  32   12   54 1
  33   13   15 1
  34   14   55 1
  35   15   16 ar
  36   15   20 ar
  37   16   17 ar
  38   16   56 1
  39   17   18 ar
  40   17   57 1
  41   18   19 ar
  42   18   21 1
  43   19   20 ar
  44   19   23 1
  45   20   58 1
  46   21   22 1
  47   21   30 1
  48   22   23 2
  49   22   24 1
  50   23   25 1
  51   24   59 1
  52   24   60 1
  53   24   61 1
  54   25   26 2
  55   25   27 1
  56   27   28 1
  57   28   29 1
  58   28   62 1
  59   28   63 1
  60   29   64 1
  61   29   65 1
  62   29   66 1
  63   30   31 ar
  64   30   35 ar
  65   31   32 ar
  66   31   67 1
  67   32   33 ar
  68   32   68 1
  69   33   34 ar
  70   33   36 1
  71   34   35 ar
  72   34   69 1
  73   35   70 1
  74   36   71 1
  75   36   72 1
  76   36   73 1

#	End of record

