#	Name: ASD01917525
#	Creating user name:	WinNT
#	Creation time:	15. 06. 2019 20:09

#	Modifying user name:	WinNT
#	Modification time:	15. 06. 2019 20:09

#	Program:	/corina/corina34_cracker 3.40 0067  02.08.2006

@<TRIPOS>MOLECULE
ASD01917525
  50   54    0    0    0
SMALL
NO_CHARGES


@<TRIPOS>ATOM
   1 C1            -0.0171     1.4096     0.0098 C.ar    
   2 C2             0.0021    -0.0041     0.0020 C.ar    
   3 C3            -1.1914    -0.7240     0.0401 C.ar    
   4 C4            -2.3837    -0.0599     0.0717 C.ar    
   5 C5            -2.4193     1.3395     0.0667 C.ar    
   6 C6            -1.2417     2.0756     0.0362 C.ar    
   7 N7             1.1595     2.0750     0.0021 N.2     
   8 C8             2.3196     1.4675    -0.0393 C.2     
   9 N9             2.4201     0.1194    -0.1563 N.am    
  10 C10            1.3104    -0.6630    -0.0613 C.2     
  11 O11            1.4016    -1.8766    -0.0294 O.2     
  12 C12           -3.7246     2.0418     0.0944 C.ar    
  13 C13            3.5354     2.3452     0.1018 C.3     
  14 C14            4.7919     1.6925    -0.4307 C.3     
  15 C15            4.8965     0.2363    -0.0258 C.3     
  16 C16            3.6797    -0.5622    -0.4348 C.3     
  17 C17            6.1349    -0.3740    -0.6853 C.3     
  18 C18            5.0558     0.1543     1.4937 C.3     
  19 C19           -4.9247     1.3239     0.1254 C.ar    
  20 N20           -6.0667     1.9855     0.1493 N.ar    
  21 C21           -6.0851     3.3116     0.1442 C.ar    
  22 N22           -4.9690     4.0273     0.1147 N.ar    
  23 C23           -3.7874     3.4391     0.0959 C.ar    
  24 C24           -7.3911     4.0142     0.1718 C.ar    
  25 N25           -8.5158     3.3112     0.2010 N.ar    
  26 C26           -9.6953     3.8960     0.2261 C.ar    
  27 C27           -9.8045     5.2754     0.2229 C.ar    
  28 C28           -8.6533     6.0488     0.1928 C.ar    
  29 C29           -7.4264     5.4069     0.1725 C.ar    
  30 H30           -1.1727    -1.8038     0.0442 H       
  31 H31           -3.3073    -0.6188     0.1004 H       
  32 H32           -1.2745     3.1551     0.0325 H       
  33 H33            3.3639     3.2742    -0.4420 H       
  34 H34            3.6801     2.5789     1.1566 H       
  35 H35            4.7905     1.7578    -1.5187 H       
  36 H36            5.6593     2.2295    -0.0469 H       
  37 H37            3.6889    -1.5119     0.1000 H       
  38 H38            3.7382    -0.7655    -1.5041 H       
  39 H39            7.0240     0.1644    -0.3571 H       
  40 H40            6.2190    -1.4226    -0.3998 H       
  41 H41            6.0438    -0.2986    -1.7689 H       
  42 H42            4.1899     0.6091     1.9748 H       
  43 H43            5.1320    -0.8904     1.7952 H       
  44 H44            5.9589     0.6859     1.7936 H       
  45 H45           -4.9171     0.2439     0.1293 H       
  46 H46           -2.8825     4.0282     0.0719 H       
  47 H47          -10.5895     3.2909     0.2491 H       
  48 H48          -10.7767     5.7453     0.2433 H       
  49 H49           -8.7124     7.1271     0.1897 H       
  50 H50           -6.5100     5.9779     0.1489 H       
@<TRIPOS>BOND
   1    1    2 ar
   2    1    7 1
   3    1    6 ar
   4    2    3 ar
   5    2   10 1
   6    3    4 ar
   7    3   30 1
   8    4    5 ar
   9    4   31 1
  10    5    6 ar
  11    5   12 1
  12    6   32 1
  13    7    8 2
  14    8    9 1
  15    8   13 1
  16    9   10 am
  17    9   16 1
  18   10   11 2
  19   12   19 ar
  20   12   23 ar
  21   13   14 1
  22   13   33 1
  23   13   34 1
  24   14   15 1
  25   14   35 1
  26   14   36 1
  27   15   16 1
  28   15   17 1
  29   15   18 1
  30   16   37 1
  31   16   38 1
  32   17   39 1
  33   17   40 1
  34   17   41 1
  35   18   42 1
  36   18   43 1
  37   18   44 1
  38   19   20 ar
  39   19   45 1
  40   20   21 ar
  41   21   22 ar
  42   21   24 1
  43   22   23 ar
  44   23   46 1
  45   24   25 ar
  46   24   29 ar
  47   25   26 ar
  48   26   27 ar
  49   26   47 1
  50   27   28 ar
  51   27   48 1
  52   28   29 ar
  53   28   49 1
  54   29   50 1

#	End of record

