#	Name: ASD01881785
#	Creating user name:	WinNT
#	Creation time:	15. 06. 2019 19:43

#	Modifying user name:	WinNT
#	Modification time:	15. 06. 2019 19:43

#	Program:	/corina/corina34_cracker 3.40 0067  02.08.2006

@<TRIPOS>MOLECULE
ASD01881785
  45   48    0    0    0
SMALL
NO_CHARGES


@<TRIPOS>ATOM
   1 N1            -0.0154     1.2839     0.0091 N.pl3   
   2 N2             0.0021    -0.0041     0.0020 N.2     
   3 N3             1.2033    -0.4649    -0.0119 N.2     
   4 C4             2.0741     0.5645    -0.0147 C.ar    
   5 C5             1.2843     1.7298    -0.0009 C.ar    
   6 C6             3.4670     0.6759    -0.0271 C.ar    
   7 C7             4.0484     1.9285    -0.0255 C.ar    
   8 C8             3.2560     3.0739    -0.0118 C.ar    
   9 C9             1.8924     2.9784    -0.0004 C.ar    
  10 C10           -1.2133     2.1272     0.0196 C.3     
  11 C11           -1.6228     2.4135     1.4657 C.3     
  12 C12           -2.7884     3.3784     1.6921 C.3     
  13 C13           -2.9777     1.8797     1.9352 C.3     
  14 O14            5.4033     2.0444    -0.0370 O.3     
  15 C15            5.9411     3.3683    -0.0346 C.3     
  16 O16            8.2511     3.2561     1.0177 O.3     
  17 N17            9.4082     3.2038     0.6577 N.2     
  18 C18            9.4761     3.2070    -0.6400 C.2     
  19 N19            8.2171     3.2682    -1.1090 N.2     
  20 C20            7.4465     3.2990    -0.0485 C.2     
  21 C21           10.7345     3.1523    -1.4674 C.3     
  22 C22           11.9512     3.0902    -0.5418 C.3     
  23 C23           10.7063     1.9077    -2.3568 C.3     
  24 C24           10.8235     4.4034    -2.3436 C.3     
  25 Br25           4.5472    -0.8761    -0.0451 Br      
  26 H26            3.7236     4.0474    -0.0103 H       
  27 H27            1.2882     3.8735     0.0099 H       
  28 H28           -1.0007     3.0667    -0.4906 H       
  29 H29           -2.0254     1.6113    -0.4926 H       
  30 H30           -0.8089     2.4286     2.1906 H       
  31 H31           -2.7415     4.0280     2.5661 H       
  32 H32           -3.2635     3.8093     0.8108 H       
  33 H33           -3.5773     1.3246     1.2137 H       
  34 H34           -3.0553     1.5434     2.9691 H       
  35 H35            5.5939     3.9031    -0.9187 H       
  36 H36            5.6098     3.8935     0.8612 H       
  37 H37           11.8877     2.1989     0.0824 H       
  38 H38           12.8613     3.0506    -1.1403 H       
  39 H39           11.9713     3.9769     0.0918 H       
  40 H40            9.8395     1.9519    -3.0162 H       
  41 H41           11.6164     1.8681    -2.9553 H       
  42 H42           10.6428     1.0164    -1.7326 H       
  43 H43           10.8436     5.2901    -1.7100 H       
  44 H44           11.7337     4.3638    -2.9421 H       
  45 H45            9.9567     4.4476    -3.0030 H       
@<TRIPOS>BOND
   1    1    2 1
   2    1    5 1
   3    1   10 1
   4    2    3 2
   5    3    4 1
   6    4    5 ar
   7    4    6 ar
   8    5    9 ar
   9    6    7 ar
  10    6   25 1
  11    7    8 ar
  12    7   14 1
  13    8    9 ar
  14    8   26 1
  15    9   27 1
  16   10   11 1
  17   10   28 1
  18   10   29 1
  19   11   12 1
  20   11   13 1
  21   11   30 1
  22   12   13 1
  23   12   31 1
  24   12   32 1
  25   13   33 1
  26   13   34 1
  27   14   15 1
  28   15   20 1
  29   15   35 1
  30   15   36 1
  31   16   17 1
  32   16   20 1
  33   17   18 2
  34   18   19 1
  35   18   21 1
  36   19   20 2
  37   21   22 1
  38   21   24 1
  39   21   23 1
  40   22   37 1
  41   22   38 1
  42   22   39 1
  43   23   40 1
  44   23   41 1
  45   23   42 1
  46   24   43 1
  47   24   44 1
  48   24   45 1

#	End of record

