#	Name: ASD01910553
#	Creating user name:	WinNT
#	Creation time:	15. 06. 2019 19:56

#	Modifying user name:	WinNT
#	Modification time:	15. 06. 2019 19:56

#	Program:	/corina/corina34_cracker 3.40 0067  02.08.2006

@<TRIPOS>MOLECULE
ASD01910553
  41   44    0    0    0
SMALL
NO_CHARGES


@<TRIPOS>ATOM
   1 N1             0.1367     0.5839    -0.2526 N.2     
   2 C2             0.2908    -0.7167    -0.2127 C.2     
   3 N3             1.6218    -0.9584    -0.1577 N.2     
   4 C4             2.1938     0.2192    -0.1677 C.2     
   5 O5             1.2185     1.1317    -0.2274 O.3     
   6 C6            -0.7855    -1.7291    -0.2248 C.2     
   7 C7            -2.1242    -1.4763    -0.2801 C.2     
   8 C8            -2.7848    -2.7151    -0.2710 C.2     
   9 C9            -1.8420    -3.6831    -0.2110 C.2     
  10 N10           -0.6146    -3.0898    -0.1883 N.pl3   
  11 C11            4.0001     1.3306     1.1211 C.3     
  12 C12            3.6746     0.4947    -0.1207 C.3     
  13 C13            4.0904     1.2677    -1.3744 C.3     
  14 C14            5.5997     1.5193    -1.3435 C.3     
  15 C15            5.9469     2.3669    -0.1155 C.3     
  16 N16            5.4217     1.6996     1.0835 N.am    
  17 C17            6.2288     1.4307     2.1288 C.2     
  18 C18            5.6624     0.8787     3.3766 C.ar    
  19 O19            7.4230     1.6425     2.0450 O.2     
  20 C20            4.4504     1.3651     3.8843 C.ar    
  21 C21            3.9621     0.8156     5.0544 C.ar    
  22 C22            4.6807    -0.1906     5.6831 C.ar    
  23 N23            5.8218    -0.6288     5.1802 N.ar    
  24 C24            6.3229    -0.1396     4.0653 C.ar    
  25 F25            4.2071    -0.7308     6.8273 F       
  26 F26           -4.1216    -2.9059    -0.3144 F       
  27 H27           -2.5902    -0.5030    -0.3227 H       
  28 H28           -2.0296    -4.7465    -0.1888 H       
  29 H29            0.2370    -3.5523    -0.1466 H       
  30 H30            3.3884     2.2328     1.1249 H       
  31 H31            3.7979     0.7459     2.0185 H       
  32 H32            4.2194    -0.4484    -0.0774 H       
  33 H33            3.8374     0.6855    -2.2605 H       
  34 H34            3.5638     2.2215    -1.4042 H       
  35 H35            6.1263     0.5665    -1.2887 H       
  36 H36            5.8987     2.0493    -2.2478 H       
  37 H37            7.0294     2.4658    -0.0341 H       
  38 H38            5.4940     3.3535    -0.2126 H       
  39 H39            3.9117     2.1499     3.3742 H       
  40 H40            3.0312     1.1660     5.4751 H       
  41 H41            7.2580    -0.5235     3.6851 H       
@<TRIPOS>BOND
   1    1    2 2
   2    1    5 1
   3    2    3 1
   4    2    6 1
   5    3    4 2
   6    4    5 1
   7    4   12 1
   8    6    7 2
   9    6   10 1
  10    7    8 1
  11    7   27 1
  12    8    9 2
  13    8   26 1
  14    9   10 1
  15    9   28 1
  16   10   29 1
  17   11   12 1
  18   11   16 1
  19   11   30 1
  20   11   31 1
  21   12   13 1
  22   12   32 1
  23   13   14 1
  24   13   33 1
  25   13   34 1
  26   14   15 1
  27   14   35 1
  28   14   36 1
  29   15   16 1
  30   15   37 1
  31   15   38 1
  32   16   17 am
  33   17   18 1
  34   17   19 2
  35   18   20 ar
  36   18   24 ar
  37   20   21 ar
  38   20   39 1
  39   21   22 ar
  40   21   40 1
  41   22   23 ar
  42   22   25 1
  43   23   24 ar
  44   24   41 1

#	End of record

