#	Name: ASD02401012
#	Creating user name:	WinNT
#	Creation time:	15. 06. 2019 20:20

#	Modifying user name:	WinNT
#	Modification time:	15. 06. 2019 20:20

#	Program:	/corina/corina34_cracker 3.40 0067  02.08.2006

@<TRIPOS>MOLECULE
ASD02401012
  27   28    0    0    0
SMALL
NO_CHARGES


@<TRIPOS>ATOM
   1 C1             7.0081     1.3561    -1.5133 C.ar    
   2 C2             7.1404     0.0210    -1.1744 C.ar    
   3 C3             6.1429    -0.6206    -0.4613 C.ar    
   4 C4             5.0091     0.0679    -0.0833 C.ar    
   5 C5             4.8691     1.4156    -0.4220 C.ar    
   6 C6             5.8796     2.0567    -1.1419 C.ar    
   7 C7             3.6568     2.1596    -0.0209 C.2     
   8 C8             3.6953     3.6302     0.0843 C.ar    
   9 C9             2.5132     4.3711    -0.0106 C.ar    
  10 C10            2.5536     5.7437     0.0886 C.ar    
  11 C11            3.7674     6.3931     0.2828 C.ar    
  12 C12            4.9455     5.6603     0.3773 C.ar    
  13 C13            4.9136     4.2874     0.2850 C.ar    
  14 O14            3.8027     7.7461     0.3800 O.3     
  15 O15            2.6278     1.5594     0.2224 O.2     
  16 N16            6.2350     6.3573     0.5831 N.pl3   
  17 O17            7.2673     5.7163     0.6660 O.2     
  18 O18            6.2637     7.5719     0.6696 O.2     
  19 H19            7.7924     1.8519    -2.0661 H       
  20 H20            8.0259    -0.5230    -1.4682 H       
  21 H21            6.2524    -1.6629    -0.2004 H       
  22 H22            4.2313    -0.4341     0.4729 H       
  23 H23            5.7778     3.0988    -1.4067 H       
  24 H24            1.5699     3.8674    -0.1619 H       
  25 H25            1.6411     6.3167     0.0151 H       
  26 H26            5.8290     3.7190     0.3584 H       
  27 H27            3.7051     8.0782     1.2830 H       
@<TRIPOS>BOND
   1    1    2 ar
   2    1    6 ar
   3    1   19 1
   4    2    3 ar
   5    2   20 1
   6    3    4 ar
   7    3   21 1
   8    4    5 ar
   9    4   22 1
  10    5    6 ar
  11    5    7 1
  12    6   23 1
  13    7    8 1
  14    7   15 2
  15    8    9 ar
  16    8   13 ar
  17    9   10 ar
  18    9   24 1
  19   10   11 ar
  20   10   25 1
  21   11   12 ar
  22   11   14 1
  23   12   13 ar
  24   12   16 1
  25   13   26 1
  26   14   27 1
  27   16   17 2
  28   16   18 2

#	End of record

