#	Name: ASD01884295
#	Creating user name:	WinNT
#	Creation time:	15. 06. 2019 19:47

#	Modifying user name:	WinNT
#	Modification time:	15. 06. 2019 19:47

#	Program:	/corina/corina34_cracker 3.40 0067  02.08.2006

@<TRIPOS>MOLECULE
ASD01884295
  25   26    0    0    0
SMALL
NO_CHARGES


@<TRIPOS>ATOM
   1 Br1            0.0562     0.0796     0.7458 Br      
   2 C2            -0.0009     1.9217     0.3223 C.2     
   3 C3             1.1449     2.5934     0.0051 C.2     
   4 C4            -1.2222     2.6130     0.3248 C.2     
   5 C5            -1.2524     3.9307     0.0199 C.2     
   6 N6            -0.1106     4.5971    -0.2906 N.am    
   7 C7             1.0761     3.9609    -0.3061 C.2     
   8 O8             2.0934     4.5745    -0.5869 O.2     
   9 C9            -0.1713     6.0239    -0.6174 C.3     
  10 C10           -0.0046     6.8475     0.6612 C.3     
  11 C11            0.0781     8.3683     0.5161 C.3     
  12 C12            2.4694     1.8746    -0.0104 C.3     
  13 C13           -1.1817     7.7226     1.0964 C.3     
  14 F14            2.3040     0.6042    -0.5724 F       
  15 F15            3.3877     2.6054    -0.7720 F       
  16 F16            2.9461     1.7471     1.2986 F       
  17 H17           -2.1369     2.0936     0.5694 H       
  18 H18           -2.1947     4.4583     0.0232 H       
  19 H19            0.6284     6.2710    -1.3156 H       
  20 H20           -1.1349     6.2515    -1.0732 H       
  21 H21            0.5946     6.3834     1.4446 H       
  22 H22            0.7313     8.9048     1.2043 H       
  23 H23            0.0137     8.7821    -0.4902 H       
  24 H24           -2.0750     7.7115     0.4718 H       
  25 H25           -1.3574     7.8342     2.1663 H       
@<TRIPOS>BOND
   1    1    2 1
   2    2    3 2
   3    2    4 1
   4    3   12 1
   5    3    7 1
   6    4    5 2
   7    4   17 1
   8    5    6 1
   9    5   18 1
  10    6    7 am
  11    6    9 1
  12    7    8 2
  13    9   10 1
  14    9   19 1
  15    9   20 1
  16   10   11 1
  17   10   13 1
  18   10   21 1
  19   11   13 1
  20   11   22 1
  21   11   23 1
  22   12   14 1
  23   12   15 1
  24   12   16 1
  25   13   24 1
  26   13   25 1

#	End of record

