#	Name: ASD01880851
#	Creating user name:	WinNT
#	Creation time:	15. 06. 2019 19:41

#	Modifying user name:	WinNT
#	Modification time:	15. 06. 2019 19:41

#	Program:	/corina/corina34_cracker 3.40 0067  02.08.2006

@<TRIPOS>MOLECULE
ASD01880851
  69   72    0    0    0
SMALL
NO_CHARGES


@<TRIPOS>ATOM
   1 N1            -0.0165     1.3118     0.0183 N.ar    
   2 C2             0.0029    -0.0054     0.0035 C.ar    
   3 N3             1.1325    -0.6838    -0.0198 N.ar    
   4 C4             2.3027    -0.0615    -0.0295 C.ar    
   5 C5             2.3317     1.3193    -0.0147 C.ar    
   6 C6             1.1170     2.0074     0.0099 C.ar    
   7 C7             3.6415     2.0646    -0.0250 C.3     
   8 O8             4.0990     2.2052    -1.3715 O.3     
   9 C9             5.2740     2.8580    -1.5579 C.ar    
  10 C10            5.7772     3.0301    -2.8438 C.ar    
  11 C11            6.9657     3.6910    -3.0311 C.ar    
  12 C12            7.6762     4.1938    -1.9360 C.ar    
  13 C13            7.1662     4.0186    -0.6466 C.ar    
  14 C14            5.9709     3.3591    -0.4649 C.ar    
  15 C15            7.7709     4.0406    -4.2578 C.3     
  16 N16            8.9568     4.7595    -3.7783 N.am    
  17 C17            8.8981     4.8457    -2.4383 C.2     
  18 O18            9.7344     5.3853    -1.7399 O.2     
  19 N19            1.0929     3.3925     0.0250 N.3     
  20 C20            0.5147     3.8987    -1.1508 C.3     
  21 C21            0.6570     5.4338    -1.2343 C.3     
  22 C22           -0.3296     6.0734    -0.2913 C.3     
  23 O23            0.2224     6.3119     1.0196 O.3     
  24 C24            1.0496     5.2647     1.5588 C.3     
  25 C25            0.4839     3.8974     1.2711 C.3     
  26 C26            7.5569     6.0249     0.7574 C.3     
  27 C27            7.9209     4.5544     0.5426 C.3     
  28 C28            9.6896     6.7307    -5.0269 C.3     
  29 C29           10.0286     5.2949    -4.6214 C.3     
  30 C30           -1.7659    -0.9960    -1.4244 C.3     
  31 C31           -1.3031    -0.7574     0.0142 C.3     
  32 C32            4.0004    -1.1028    -1.5069 C.3     
  33 C33            3.5861    -0.8509    -0.0557 C.3     
  34 H34            3.5015     3.0514     0.4161 H       
  35 H35            4.3799     1.5094     0.5535 H       
  36 H36            5.2335     2.6439    -3.6934 H       
  37 H37            5.5772     3.2243     0.5317 H       
  38 H38            8.0695     3.1324    -4.7813 H       
  39 H39            7.1870     4.6804    -4.9195 H       
  40 H40            1.0067     3.4478    -2.0126 H       
  41 H41           -0.5433     3.6374    -1.1687 H       
  42 H42            1.6697     5.7217    -0.9524 H       
  43 H43            0.4536     5.7636    -2.2531 H       
  44 H44           -0.6543     7.0242    -0.7142 H       
  45 H45           -1.1968     5.4203    -0.1940 H       
  46 H46            2.0445     5.3367     1.1194 H       
  47 H47            1.1296     5.3957     2.6379 H       
  48 H48           -0.5970     3.9665     1.1488 H       
  49 H49            0.7201     3.2227     2.0939 H       
  50 H50            8.1028     6.4124     1.6176 H       
  51 H51            7.8232     6.5985    -0.1304 H       
  52 H52            6.4855     6.1114     0.9379 H       
  53 H53            7.6546     3.9808     1.4304 H       
  54 H54            8.9923     4.4679     0.3621 H       
  55 H55            8.7517     6.7395    -5.5822 H       
  56 H56            9.5884     7.3464    -4.1331 H       
  57 H57           10.4871     7.1290    -5.6542 H       
  58 H58           10.9665     5.2860    -4.0660 H       
  59 H59           10.1298     4.6792    -5.5151 H       
  60 H60           -2.7105    -1.5399    -1.4167 H       
  61 H61           -1.9024    -0.0379    -1.9259 H       
  62 H62           -1.0146    -1.5803    -1.9556 H       
  63 H63           -1.1666    -1.7155     0.5156 H       
  64 H64           -2.0545    -0.1731     0.5454 H       
  65 H65            3.2175    -1.6650    -2.0159 H       
  66 H66            4.1502    -0.1489    -2.0127 H       
  67 H67            4.9287    -1.6738    -1.5258 H       
  68 H68            4.3690    -0.2887     0.4533 H       
  69 H69            3.4364    -1.8047     0.4502 H       
@<TRIPOS>BOND
   1    1    2 ar
   2    1    6 ar
   3    2    3 ar
   4    2   31 1
   5    3    4 ar
   6    4    5 ar
   7    4   33 1
   8    5    6 ar
   9    5    7 1
  10    6   19 1
  11    7    8 1
  12    7   34 1
  13    7   35 1
  14    8    9 1
  15    9   10 ar
  16    9   14 ar
  17   10   11 ar
  18   10   36 1
  19   11   12 ar
  20   11   15 1
  21   12   13 ar
  22   12   17 1
  23   13   14 ar
  24   13   27 1
  25   14   37 1
  26   15   16 1
  27   15   38 1
  28   15   39 1
  29   16   17 am
  30   16   29 1
  31   17   18 2
  32   19   20 1
  33   19   25 1
  34   20   21 1
  35   20   40 1
  36   20   41 1
  37   21   22 1
  38   21   42 1
  39   21   43 1
  40   22   23 1
  41   22   44 1
  42   22   45 1
  43   23   24 1
  44   24   25 1
  45   24   46 1
  46   24   47 1
  47   25   48 1
  48   25   49 1
  49   26   27 1
  50   26   50 1
  51   26   51 1
  52   26   52 1
  53   27   53 1
  54   27   54 1
  55   28   29 1
  56   28   55 1
  57   28   56 1
  58   28   57 1
  59   29   58 1
  60   29   59 1
  61   30   31 1
  62   30   60 1
  63   30   61 1
  64   30   62 1
  65   31   63 1
  66   31   64 1
  67   32   33 1
  68   32   65 1
  69   32   66 1
  70   32   67 1
  71   33   68 1
  72   33   69 1

#	End of record

