#	Name: ASD01148315
#	Creating user name:	WinNT
#	Creation time:	15. 06. 2019 19:02

#	Modifying user name:	WinNT
#	Modification time:	15. 06. 2019 19:02

#	Program:	/corina/corina34_cracker 3.40 0067  02.08.2006

@<TRIPOS>MOLECULE
ASD01148315
  50   52    0    0    0
SMALL
NO_CHARGES


@<TRIPOS>ATOM
   1 C1            -0.0167     1.3781     0.0096 C.ar    
   2 C2             0.0021    -0.0041     0.0020 C.ar    
   3 C3            -1.1855    -0.7115     0.0095 C.ar    
   4 C4            -2.3919    -0.0366     0.0251 C.ar    
   5 C5            -2.4106     1.3455     0.0336 C.ar    
   6 C6            -1.2230     2.0529     0.0305 C.ar    
   7 C7            -3.7258     2.0812     0.0501 C.3     
   8 O8            -4.7305     1.3264     0.7574 O.3     
   9 C9            -3.6320     3.3642     0.9100 C.3     
  10 C10           -4.1231     2.8897     2.2645 C.2     
  11 N11           -4.7174     1.7549     2.1047 N.2     
  12 C12           -3.9509     3.6030     3.5453 C.ar    
  13 C13           -4.4549     3.0508     4.7257 C.ar    
  14 C14           -3.2790     4.8277     3.5781 C.ar    
  15 C15           -3.1186     5.4928     4.7725 C.ar    
  16 C16           -3.6272     4.9432     5.9520 C.ar    
  17 C17           -4.2944     3.7160     5.9200 C.ar    
  18 C18           -3.4545     5.6569     7.2340 C.2     
  19 O19           -2.8700     6.7223     7.2625 O.2     
  20 N20           -3.9451     5.1267     8.3718 N.am    
  21 C21           -4.1857     2.4068    -1.3724 C.3     
  22 F22           -4.3278     1.2202    -2.0997 F       
  23 F23           -5.4144     3.0740    -1.3239 F       
  24 F24           -3.2356     3.2240    -1.9942 F       
  25 C25           -3.7836     5.7942     9.5707 C.2     
  26 N26           -3.1629     6.9257     9.6010 N.2     
  27 O27           -2.9974     7.6097    10.8297 O.3     
  28 C28           -2.2926     8.8476    10.7154 C.3     
  29 C29            1.2780     2.1493     0.0014 C.3     
  30 F30            2.3536     1.2548    -0.0137 F       
  31 F31            1.3303     2.9607    -1.1371 F       
  32 F32            1.3521     2.9484     1.1473 F       
  33 C33           -1.1651    -2.2183     0.0002 C.3     
  34 F34            0.1600    -2.6666    -0.0156 F       
  35 F35           -1.8069    -2.7004     1.1460 F       
  36 F36           -1.8295    -2.6867    -1.1384 F       
  37 H37            0.9446    -0.5313    -0.0101 H       
  38 H38           -3.3198    -0.5893     0.0302 H       
  39 H39           -1.2376     3.1328     0.0372 H       
  40 H40           -2.6014     3.7135     0.9727 H       
  41 H41           -4.2825     4.1439     0.5139 H       
  42 H42           -4.9707     2.1022     4.7010 H       
  43 H43           -2.8853     5.2522     2.6665 H       
  44 H44           -2.5992     6.4394     4.7978 H       
  45 H45           -4.6878     3.2914     6.8318 H       
  46 H46           -4.4116     4.2765     8.3490 H       
  47 H47           -4.1768     5.3693    10.4824 H       
  48 H48           -2.2076     9.3094    11.6991 H       
  49 H49           -1.2965     8.6628    10.3135 H       
  50 H50           -2.8363     9.5148    10.0465 H       
@<TRIPOS>BOND
   1    1    2 ar
   2    1   29 1
   3    1    6 ar
   4    2    3 ar
   5    2   37 1
   6    3    4 ar
   7    3   33 1
   8    4    5 ar
   9    4   38 1
  10    5    6 ar
  11    5    7 1
  12    6   39 1
  13    7    8 1
  14    7    9 1
  15    7   21 1
  16    8   11 1
  17    9   10 1
  18    9   40 1
  19    9   41 1
  20   10   11 2
  21   10   12 1
  22   12   13 ar
  23   12   14 ar
  24   13   17 ar
  25   13   42 1
  26   14   15 ar
  27   14   43 1
  28   15   16 ar
  29   15   44 1
  30   16   17 ar
  31   16   18 1
  32   17   45 1
  33   18   19 2
  34   18   20 am
  35   20   25 1
  36   20   46 1
  37   21   22 1
  38   21   23 1
  39   21   24 1
  40   25   26 2
  41   25   47 1
  42   26   27 1
  43   27   28 1
  44   28   48 1
  45   28   49 1
  46   28   50 1
  47   29   30 1
  48   29   31 1
  49   29   32 1
  50   33   34 1
  51   33   35 1
  52   33   36 1

#	End of record

