#	Name: ASD02198526
#	Creating user name:	WinNT
#	Creation time:	15. 06. 2019 20:19

#	Modifying user name:	WinNT
#	Modification time:	15. 06. 2019 20:19

#	Program:	/corina/corina34_cracker 3.40 0067  02.08.2006

@<TRIPOS>MOLECULE
ASD02198526
  39   42    0    0    0
SMALL
NO_CHARGES


@<TRIPOS>ATOM
   1 C1             0.0071     1.5097     0.1334 C.2     
   2 C2             0.0745     0.1698    -0.0948 C.2     
   3 N3            -1.0520    -0.5605    -0.2650 N.pl3   
   4 N4            -2.2300    -0.0572    -0.2243 N.2     
   5 C5            -2.4378     1.2255    -0.0110 C.2     
   6 C6            -1.2793     2.1065     0.1922 C.2     
   7 C7            -0.9243    -1.9340    -0.4976 C.ar    
   8 C8            -1.3812    -3.8672    -1.8468 C.ar    
   9 C9            -0.6720    -4.6525    -0.9571 C.ar    
  10 C10           -0.0935    -4.0844     0.1635 C.ar    
  11 C11           -0.2174    -2.7287     0.3956 C.ar    
  12 C12           -3.8111     1.7682     0.0284 C.2     
  13 N13           -4.3737     2.4803     1.0501 N.pl3   
  14 N14           -5.6854     2.7985     0.6767 N.2     
  15 C15           -5.9153     2.3059    -0.5143 C.2     
  16 C16           -4.7639     1.6568    -0.9603 C.2     
  17 C17           -3.7503     2.8292     2.2549 C.ar    
  18 C18           -2.9568     1.9044     2.9209 C.ar    
  19 O19           -1.4175     3.3043     0.3942 O.2     
  20 C20           -3.9199     4.1023     2.7829 C.ar    
  21 C21           -3.3035     4.4433     3.9709 C.ar    
  22 C22           -2.5181     3.5185     4.6344 C.ar    
  23 C23           -2.3431     2.2516     4.1085 C.ar    
  24 C24           -1.5098    -2.5085    -1.6213 C.ar    
  25 O25            1.1344     2.2510     0.3051 O.3     
  26 F26           -2.2031    -1.7409    -2.4903 F       
  27 H27            1.0379    -0.3162    -0.1410 H       
  28 H28           -1.8316    -4.3141    -2.7208 H       
  29 H29           -0.5732    -5.7131    -1.1352 H       
  30 H30            0.4594    -4.7015     0.8562 H       
  31 H31            0.2353    -2.2867     1.2709 H       
  32 H32           -6.8418     2.3913    -1.0626 H       
  33 H33           -4.6434     1.1517    -1.9073 H       
  34 H34           -2.8200     0.9147     2.5109 H       
  35 H35           -4.5328     4.8251     2.2650 H       
  36 H36           -3.4347     5.4334     4.3819 H       
  37 H37           -2.0369     3.7877     5.5630 H       
  38 H38           -1.7294     1.5314     4.6292 H       
  39 H39            1.9535     1.7401     0.2490 H       
@<TRIPOS>BOND
   1    1    2 2
   2    1   25 1
   3    1    6 1
   4    2    3 1
   5    2   27 1
   6    3    4 1
   7    3    7 1
   8    4    5 2
   9    5    6 1
  10    5   12 1
  11    6   19 2
  12    7   24 ar
  13    7   11 ar
  14    8    9 ar
  15    8   24 ar
  16    8   28 1
  17    9   10 ar
  18    9   29 1
  19   10   11 ar
  20   10   30 1
  21   11   31 1
  22   12   13 1
  23   12   16 2
  24   13   14 1
  25   13   17 1
  26   14   15 2
  27   15   16 1
  28   15   32 1
  29   16   33 1
  30   17   20 ar
  31   17   18 ar
  32   18   23 ar
  33   18   34 1
  34   20   21 ar
  35   20   35 1
  36   21   22 ar
  37   21   36 1
  38   22   23 ar
  39   22   37 1
  40   23   38 1
  41   24   26 1
  42   25   39 1

#	End of record

