#	Name: ASD04840054
#	Creating user name:	WinNT
#	Creation time:	15. 06. 2019 20:52

#	Modifying user name:	WinNT
#	Modification time:	15. 06. 2019 20:52

#	Program:	/corina/corina34_cracker 3.40 0067  02.08.2006

@<TRIPOS>MOLECULE
ASD04840054
  35   36    0    0    0
SMALL
NO_CHARGES


@<TRIPOS>ATOM
   1 C1            -0.0167     1.3837     0.0096 C.ar    
   2 C2             0.0021    -0.0041     0.0020 C.ar    
   3 C3             1.1967    -0.6906    -0.0126 C.ar    
   4 C4             2.3970     0.0119    -0.0203 C.ar    
   5 C5             2.3725     1.4187    -0.0129 C.ar    
   6 C6             1.1508     2.0939     0.0023 C.ar    
   7 N7             3.7195    -0.3711    -0.0350 N.pl3   
   8 C8             4.5243     0.7355    -0.0372 C.2     
   9 C9             3.7731     1.8479    -0.0243 C.2     
  10 C10            4.2753     3.2687    -0.0220 C.3     
  11 C11            4.4319     3.7566    -1.4637 C.3     
  12 C12            6.0310     0.7093    -0.0515 C.3     
  13 P13            2.7950     3.8250    -2.2633 P.3     
  14 O14            2.1888     2.4748    -2.2625 O.2     
  15 O15            1.8441     4.8407    -1.4532 O.3     
  16 O16            2.9598     4.3384    -3.7803 O.3     
  17 P17            5.1786     5.4197    -1.4647 P.3     
  18 O18            6.5075     5.3642    -0.8155 O.2     
  19 O19            5.3433     5.9331    -2.9817 O.3     
  20 O20            4.2276     6.4354    -0.6546 O.3     
  21 H21           -0.9617     1.9065     0.0169 H       
  22 H22           -0.9290    -0.5514     0.0080 H       
  23 H23            1.2009    -1.7706    -0.0177 H       
  24 H24            1.1284     3.1736     0.0080 H       
  25 H25            4.0338    -1.2888    -0.0423 H       
  26 H26            3.5621     3.9053     0.5015 H       
  27 H27            5.2402     3.3122     0.4831 H       
  28 H28            5.0757     3.0690    -2.0121 H       
  29 H29            6.3847     0.7084    -1.0825 H       
  30 H30            6.4146     1.5901     0.4634 H       
  31 H31            6.3836    -0.1895     0.4544 H       
  32 H32            0.9549     4.9269    -1.8235 H       
  33 H33            3.3519     5.2190    -3.8571 H       
  34 H34            5.7354     6.8137    -3.0585 H       
  35 H35            3.3385     6.5216    -1.0249 H       
@<TRIPOS>BOND
   1    1    2 ar
   2    1    6 ar
   3    1   21 1
   4    2    3 ar
   5    2   22 1
   6    3    4 ar
   7    3   23 1
   8    4    5 ar
   9    4    7 1
  10    5    6 ar
  11    5    9 1
  12    6   24 1
  13    7    8 1
  14    7   25 1
  15    8    9 2
  16    8   12 1
  17    9   10 1
  18   10   11 1
  19   10   26 1
  20   10   27 1
  21   11   13 1
  22   11   17 1
  23   11   28 1
  24   12   29 1
  25   12   30 1
  26   12   31 1
  27   13   14 2
  28   13   15 1
  29   13   16 1
  30   15   32 1
  31   16   33 1
  32   17   18 2
  33   17   19 1
  34   17   20 1
  35   19   34 1
  36   20   35 1

#	End of record

