#	Name: ASD01810661
#	Creating user name:	WinNT
#	Creation time:	15. 06. 2019 19:25

#	Modifying user name:	WinNT
#	Modification time:	15. 06. 2019 19:25

#	Program:	/corina/corina34_cracker 3.40 0067  02.08.2006

@<TRIPOS>MOLECULE
ASD01810661
  61   65    0    0    0
SMALL
NO_CHARGES


@<TRIPOS>ATOM
   1 C1             0.0055     1.3556     0.2683 C.ar    
   2 C2            -0.0054    -0.0112    -0.0162 C.ar    
   3 C3            -1.1984    -0.6555    -0.2792 C.ar    
   4 C4            -2.3871     0.0462    -0.2633 C.ar    
   5 C5            -2.3904     1.4140     0.0198 C.ar    
   6 C6            -1.1910     2.0687     0.2916 C.ar    
   7 C7            -3.6644     2.1643     0.0359 C.2     
   8 C8            -3.6839    -0.6649    -0.5525 C.3     
   9 N9            -3.9834     2.9276     1.0999 N.am    
  10 O10           -4.4239     2.0928    -0.9103 O.2     
  11 C11           -5.1820     3.7772     1.0792 C.3     
  12 C12           -3.1427     2.9213     2.3049 C.3     
  13 C13           -4.0236     2.6108     3.5191 C.3     
  14 C14           -5.1858     3.6053     3.5688 C.3     
  15 C15           -6.0358     3.4554     2.3097 C.3     
  16 C16           -6.0356     3.3242     4.7812 C.ar    
  17 C17           -6.2047     4.3021     5.7453 C.ar    
  18 C18           -6.9816     4.0517     6.8574 C.ar    
  19 C19           -7.5980     2.8080     7.0088 C.ar    
  20 C20           -7.4230     1.8257     6.0319 C.ar    
  21 C21           -6.6477     2.0914     4.9223 C.ar    
  22 C22           -8.4055     2.5409     8.1608 C.1     
  23 C23            1.2842     2.0438     0.5502 C.2     
  24 N24            1.4249     3.3236     0.8313 N.2     
  25 C25            2.7129     3.5873     1.0275 C.2     
  26 C26            3.4139     2.4383     0.8642 C.2     
  27 N27            2.5201     1.4587     0.5693 N.pl3   
  28 C28            3.3716     4.9006     1.3761 C.3     
  29 C29            4.7896     4.5936     1.8790 C.3     
  30 O30            5.4348     3.6894     0.9784 O.3     
  31 C31            4.9116     2.3541     1.0064 C.3     
  32 N32           -9.0460     2.3290     9.0748 N.1     
  33 C33           -1.2023    -2.1311    -0.5854 C.3     
  34 H34            0.9212    -0.5659    -0.0309 H       
  35 H35           -1.1880     3.1260     0.5115 H       
  36 H36           -4.0557    -1.1286     0.3613 H       
  37 H37           -4.4175     0.0524    -0.9204 H       
  38 H38           -3.5166    -1.4331    -1.3076 H       
  39 H39           -4.8867     4.8262     1.1036 H       
  40 H40           -5.7556     3.5779     0.1741 H       
  41 H41           -2.3713     2.1573     2.2081 H       
  42 H42           -2.6778     3.8990     2.4312 H       
  43 H43           -4.4155     1.5972     3.4346 H       
  44 H44           -3.4313     2.6976     4.4300 H       
  45 H45           -4.7929     4.6203     3.6284 H       
  46 H46           -6.8773     4.1468     2.3544 H       
  47 H47           -6.4076     2.4330     2.2413 H       
  48 H48           -5.7271     5.2635     5.6272 H       
  49 H49           -7.1125     4.8158     7.6094 H       
  50 H50           -7.8967     0.8615     6.1430 H       
  51 H51           -6.5116     1.3326     4.1659 H       
  52 H52            2.7206     0.5250     0.3996 H       
  53 H53            3.4228     5.5346     0.4910 H       
  54 H54            2.8028     5.4028     2.1587 H       
  55 H55            5.3625     5.5192     1.9361 H       
  56 H56            4.7333     4.1410     2.8690 H       
  57 H57            5.1656     1.8787     1.9538 H       
  58 H58            5.3285     1.7776     0.1807 H       
  59 H59           -1.3119    -2.6942     0.3414 H       
  60 H60           -2.0340    -2.3617    -1.2512 H       
  61 H61           -0.2640    -2.4045    -1.0679 H       
@<TRIPOS>BOND
   1    1    2 ar
   2    1   23 1
   3    1    6 ar
   4    2    3 ar
   5    2   34 1
   6    3    4 ar
   7    3   33 1
   8    4    5 ar
   9    4    8 1
  10    5    6 ar
  11    5    7 1
  12    6   35 1
  13    7    9 am
  14    7   10 2
  15    8   36 1
  16    8   37 1
  17    8   38 1
  18    9   11 1
  19    9   12 1
  20   11   15 1
  21   11   39 1
  22   11   40 1
  23   12   13 1
  24   12   41 1
  25   12   42 1
  26   13   14 1
  27   13   43 1
  28   13   44 1
  29   14   15 1
  30   14   16 1
  31   14   45 1
  32   15   46 1
  33   15   47 1
  34   16   17 ar
  35   16   21 ar
  36   17   18 ar
  37   17   48 1
  38   18   19 ar
  39   18   49 1
  40   19   20 ar
  41   19   22 1
  42   20   21 ar
  43   20   50 1
  44   21   51 1
  45   22   32 3
  46   23   24 2
  47   23   27 1
  48   24   25 1
  49   25   26 2
  50   25   28 1
  51   26   27 1
  52   26   31 1
  53   27   52 1
  54   28   29 1
  55   28   53 1
  56   28   54 1
  57   29   30 1
  58   29   55 1
  59   29   56 1
  60   30   31 1
  61   31   57 1
  62   31   58 1
  63   33   59 1
  64   33   60 1
  65   33   61 1

#	End of record

