#	Name: ASD01812720
#	Creating user name:	WinNT
#	Creation time:	15. 06. 2019 19:29

#	Modifying user name:	WinNT
#	Modification time:	15. 06. 2019 19:29

#	Program:	/corina/corina34_cracker 3.40 0067  02.08.2006

@<TRIPOS>MOLECULE
ASD01812720
  55   59    0    0    0
SMALL
NO_CHARGES


@<TRIPOS>ATOM
   1 C1            -0.0167     1.3793     0.0215 C.ar    
   2 C2             0.0020    -0.0040     0.0152 C.ar    
   3 C3             1.2119    -0.6875    -0.0090 C.ar    
   4 C4             2.3951     0.0083    -0.0271 C.ar    
   5 C5             2.3938     1.4073    -0.0215 C.ar    
   6 C6             1.1709     2.0933     0.0034 C.ar    
   7 C7             3.8426    -0.4153    -0.0545 C.3     
   8 N8             4.6307     0.8225    -0.0635 N.am    
   9 C9             3.7897     1.8708    -0.0444 C.2     
  10 C10            6.0933     0.9025    -0.0891 C.3     
  11 C11            6.5697     0.9356    -1.5184 C.ar    
  12 C12            6.7224     2.1473    -2.1669 C.ar    
  13 C13            7.1588     2.1808    -3.4769 C.ar    
  14 C14            7.4442     0.9964    -4.1426 C.ar    
  15 C15            7.2899    -0.2187    -3.4888 C.ar    
  16 C16            6.8585    -0.2455    -2.1770 C.ar    
  17 O17            1.1506     3.4497     0.0092 O.3     
  18 O18            4.1339     3.0371    -0.0458 O.2     
  19 N19            7.8869     1.0271    -5.4724 N.pl3   
  20 C20           -0.1284     4.0798    -0.0866 C.3     
  21 N21            8.0911     2.1764    -6.2470 N.2     
  22 C22            8.1980    -0.0470    -6.2327 C.2     
  23 C23            8.5803     0.4064    -7.4490 C.2     
  24 C24            8.5043     1.8034    -7.4314 C.2     
  25 F25           -1.1600    -0.6930     0.0330 F       
  26 C26            0.0368     5.4819    -0.6762 C.3     
  27 C27           -1.3326     6.1565    -0.7788 C.3     
  28 C28           -1.9561     6.2594     0.6146 C.3     
  29 C29           -2.1212     4.8573     1.2042 C.3     
  30 C30           -0.7518     4.1826     1.3068 C.3     
  31 O31            0.6191     5.3858    -1.9777 O.3     
  32 H32           -0.9602     1.9047     0.0361 H       
  33 H33            1.2212    -1.7674    -0.0131 H       
  34 H34            4.0780    -1.0030     0.8328 H       
  35 H35            4.0463    -0.9959    -0.9542 H       
  36 H36            6.4166     1.8089     0.4227 H       
  37 H37            6.5137     0.0316     0.4139 H       
  38 H38            6.5000     3.0683    -1.6487 H       
  39 H39            7.2776     3.1275    -3.9830 H       
  40 H40            7.5107    -1.1417    -4.0042 H       
  41 H41            6.7428    -1.1901    -1.6664 H       
  42 H42           -0.7774     3.4882    -0.7323 H       
  43 H43            8.1503    -1.0810    -5.9244 H       
  44 H44            8.8919    -0.2025    -8.2848 H       
  45 H45            8.7475     2.4609    -8.2530 H       
  46 H46            0.6858     6.0735    -0.0306 H       
  47 H47           -1.2150     7.1554    -1.1989 H       
  48 H48           -1.9817     5.5649    -1.4245 H       
  49 H49           -1.3071     6.8510     1.2603 H       
  50 H50           -2.9317     6.7400     0.5415 H       
  51 H51           -2.5654     4.9306     2.1969 H       
  52 H52           -2.7703     4.2657     0.5586 H       
  53 H53           -0.8695     3.1837     1.7269 H       
  54 H54           -0.1028     4.7742     1.9525 H       
  55 H55            0.7532     6.2390    -2.4125 H       
@<TRIPOS>BOND
   1    1    2 ar
   2    1    6 ar
   3    1   32 1
   4    2    3 ar
   5    2   25 1
   6    3    4 ar
   7    3   33 1
   8    4    7 1
   9    4    5 ar
  10    5    6 ar
  11    5    9 1
  12    6   17 1
  13    7    8 1
  14    7   34 1
  15    7   35 1
  16    8    9 am
  17    8   10 1
  18    9   18 2
  19   10   11 1
  20   10   36 1
  21   10   37 1
  22   11   12 ar
  23   11   16 ar
  24   12   13 ar
  25   12   38 1
  26   13   14 ar
  27   13   39 1
  28   14   15 ar
  29   14   19 1
  30   15   16 ar
  31   15   40 1
  32   16   41 1
  33   17   20 1
  34   19   22 1
  35   19   21 1
  36   20   26 1
  37   20   30 1
  38   20   42 1
  39   21   24 2
  40   22   23 2
  41   22   43 1
  42   23   24 1
  43   23   44 1
  44   24   45 1
  45   26   27 1
  46   26   31 1
  47   26   46 1
  48   27   28 1
  49   27   47 1
  50   27   48 1
  51   28   29 1
  52   28   49 1
  53   28   50 1
  54   29   30 1
  55   29   51 1
  56   29   52 1
  57   30   53 1
  58   30   54 1
  59   31   55 1

#	End of record

