#	Name: ASD02500594
#	Creating user name:	WinNT
#	Creation time:	15. 06. 2019 20:23

#	Modifying user name:	WinNT
#	Modification time:	15. 06. 2019 20:23

#	Program:	/corina/corina34_cracker 3.40 0067  02.08.2006

@<TRIPOS>MOLECULE
ASD02500594
  64   68    0    0    0
SMALL
NO_CHARGES


@<TRIPOS>ATOM
   1 N1             2.0624     3.9487    -1.2300 N.ar    
   2 C2             3.0089     3.7269    -0.3507 C.ar    
   3 C3             4.1662     3.0245    -0.6806 C.ar    
   4 C4             4.3355     2.5468    -1.9489 C.ar    
   5 C5             3.3167     2.7866    -2.8904 C.ar    
   6 C6             3.4203     2.3269    -4.2128 C.ar    
   7 C7             2.4132     2.5795    -5.0939 C.ar    
   8 C8             1.2806     3.2891    -4.7007 C.ar    
   9 C9             1.1473     3.7493    -3.4267 C.ar    
  10 C10            2.1655     3.5085    -2.4881 C.ar    
  11 S11           -0.2955     4.6445    -2.9562 S.o2    
  12 O12            0.1581     5.8221    -2.3030 O.2     
  13 O13           -1.1440     4.6657    -4.0959 O.2     
  14 N14           -1.0780     3.7443    -1.8074 N.am    
  15 C15           -1.6502     2.5228    -2.1510 C.ar    
  16 C16           -2.8222     2.1025    -1.5237 C.ar    
  17 C17           -3.3901     0.8940    -1.8622 C.ar    
  18 C18           -2.7894     0.0898    -2.8359 C.ar    
  19 C19           -1.6148     0.5150    -3.4621 C.ar    
  20 C20           -1.0547     1.7265    -3.1237 C.ar    
  21 C21           -3.3943    -1.2053    -3.2009 C.2     
  22 O22           -3.4254    -1.5553    -4.3649 O.2     
  23 N23           -3.9124    -2.0005    -2.2440 N.am    
  24 C24           -4.4343    -3.3357    -2.5729 C.3     
  25 C25           -3.7975    -4.3550    -1.6223 C.3     
  26 N26           -4.0155    -3.9277    -0.2339 N.3     
  27 C27           -3.3525    -2.6456     0.0394 C.3     
  28 C28           -3.9655    -1.5586    -0.8422 C.3     
  29 C29           -3.5721    -4.9615     0.7109 C.3     
  30 C30           -3.6423    -4.4127     2.1374 C.3     
  31 C31           -4.4674    -6.1678     0.5922 C.ar    
  32 C32           -3.9360    -7.4379     0.7161 C.ar    
  33 C33           -4.7573    -8.5445     0.6071 C.ar    
  34 C34           -6.1101    -8.3809     0.3746 C.ar    
  35 C35           -6.6417    -7.1108     0.2516 C.ar    
  36 C36           -5.8211    -6.0042     0.3649 C.ar    
  37 F37           -3.4009     2.8806    -0.5830 F       
  38 H38            2.8888     4.0987     0.6561 H       
  39 H39            4.9288     2.8582     0.0658 H       
  40 H40            5.2263     2.0007    -2.2220 H       
  41 H41            4.2938     1.7764    -4.5296 H       
  42 H42            2.4938     2.2255    -6.1111 H       
  43 H43            0.4958     3.4772    -5.4184 H       
  44 H44           -1.1376     4.0683    -0.8951 H       
  45 H45           -4.2978     0.5680    -1.3762 H       
  46 H46           -1.1489    -0.1043    -4.2144 H       
  47 H47           -0.1495     2.0571    -3.6113 H       
  48 H48           -5.5172    -3.3463    -2.4491 H       
  49 H49           -4.1782    -3.5855    -3.6026 H       
  50 H50           -4.2543    -5.3324    -1.7780 H       
  51 H51           -2.7274    -4.4176    -1.8199 H       
  52 H52           -3.4866    -2.3832     1.0888 H       
  53 H53           -2.2886    -2.7319    -0.1813 H       
  54 H54           -3.3996    -0.6340    -0.7280 H       
  55 H55           -5.0025    -1.3951    -0.5488 H       
  56 H56           -2.5454    -5.2470     0.4816 H       
  57 H57           -3.3133    -5.1797     2.8384 H       
  58 H58           -2.9947    -3.5401     2.2233 H       
  59 H59           -4.6690    -4.1271     2.3667 H       
  60 H60           -2.8791    -7.5656     0.8977 H       
  61 H61           -4.3420    -9.5368     0.7033 H       
  62 H62           -6.7516    -9.2455     0.2888 H       
  63 H63           -7.6986    -6.9831     0.0696 H       
  64 H64           -6.2371    -5.0118     0.2724 H       
@<TRIPOS>BOND
   1    1    2 ar
   2    1   10 ar
   3    2    3 ar
   4    2   38 1
   5    3    4 ar
   6    3   39 1
   7    4    5 ar
   8    4   40 1
   9    5    6 ar
  10    5   10 ar
  11    6    7 ar
  12    6   41 1
  13    7    8 ar
  14    7   42 1
  15    8    9 ar
  16    8   43 1
  17    9   10 ar
  18    9   11 1
  19   11   12 2
  20   11   13 2
  21   11   14 am
  22   14   15 1
  23   14   44 1
  24   15   16 ar
  25   15   20 ar
  26   16   17 ar
  27   16   37 1
  28   17   18 ar
  29   17   45 1
  30   18   19 ar
  31   18   21 1
  32   19   20 ar
  33   19   46 1
  34   20   47 1
  35   21   22 2
  36   21   23 am
  37   23   24 1
  38   23   28 1
  39   24   25 1
  40   24   48 1
  41   24   49 1
  42   25   26 1
  43   25   50 1
  44   25   51 1
  45   26   27 1
  46   26   29 1
  47   27   28 1
  48   27   52 1
  49   27   53 1
  50   28   54 1
  51   28   55 1
  52   29   30 1
  53   29   31 1
  54   29   56 1
  55   30   57 1
  56   30   58 1
  57   30   59 1
  58   31   32 ar
  59   31   36 ar
  60   32   33 ar
  61   32   60 1
  62   33   34 ar
  63   33   61 1
  64   34   35 ar
  65   34   62 1
  66   35   36 ar
  67   35   63 1
  68   36   64 1

#	End of record

