#	Name: ASD00431298
#	Creating user name:	WinNT
#	Creation time:	15. 06. 2019 18:35

#	Modifying user name:	WinNT
#	Modification time:	15. 06. 2019 18:35

#	Program:	/corina/corina34_cracker 3.40 0067  02.08.2006

@<TRIPOS>MOLECULE
ASD00431298
  55   59    0    0    0
SMALL
NO_CHARGES


@<TRIPOS>ATOM
   1 C1            -0.3602     1.0407    -0.2089 C.2     
   2 N2            -0.2386    -0.2990    -0.1966 N.am    
   3 C3             1.0546    -0.6671    -0.1554 C.2     
   4 C4             1.8909     0.5516    -0.1382 C.ar    
   5 C5             3.2556     0.7884    -0.0984 C.ar    
   6 C6             3.7269     2.0919    -0.0922 C.ar    
   7 C7             2.8453     3.1560    -0.1255 C.ar    
   8 C8             1.4776     2.9344    -0.1655 C.ar    
   9 C9             0.9920     1.6367    -0.1721 C.ar    
  10 O10           -1.4058     1.6572    -0.2488 O.2     
  11 O11            1.4661    -1.8096    -0.1351 O.2     
  12 C12           -1.3662    -1.2339    -0.2239 C.3     
  13 C13           -1.2617    -2.1228    -1.4649 C.3     
  14 C14           -1.3362    -2.0935     1.0136 C.2     
  15 C15           -2.4092    -2.4591     1.7217 C.2     
  16 C16           -2.1437    -3.2494     2.8197 C.2     
  17 C17           -0.8362    -3.5312     3.0083 C.2     
  18 S18            0.1152    -2.7722     1.7384 S.3     
  19 S19            1.4096    -4.7332     4.3699 S.3     
  20 C20           -0.2926    -4.3514     4.1029 C.2     
  21 N21           -0.9833    -4.9259     5.0498 N.2     
  22 N22           -0.3506    -5.5949     5.9115 N.2     
  23 C23            0.9436    -5.6641     5.7948 C.2     
  24 O24            1.7847    -6.3325     6.6213 O.3     
  25 C25            1.2684    -6.8709     7.7580 C.ar    
  26 C26           -0.0421    -6.5976     8.1220 C.ar    
  27 C27           -0.5665    -7.1445     9.2768 C.ar    
  28 C28            0.2173    -7.9667    10.0728 C.ar    
  29 C29            1.5276    -8.2400     9.7090 C.ar    
  30 C30            2.0503    -7.6982     8.5511 C.ar    
  31 O31           -0.2987    -8.5044    11.2101 O.3     
  32 C32           -1.6092    -8.0808    11.5914 C.3     
  33 C33           -2.6435    -9.0650    11.0413 C.3     
  34 C34           -1.7074    -8.0378    13.1177 C.3     
  35 H35            3.9490    -0.0391    -0.0719 H       
  36 H36            4.7904     2.2774    -0.0608 H       
  37 H37            3.2248     4.1672    -0.1200 H       
  38 H38            0.7934     3.7696    -0.1911 H       
  39 H39           -2.3012    -0.6747    -0.2553 H       
  40 H40           -1.2834    -1.5011    -2.3600 H       
  41 H41           -0.3266    -2.6820    -1.4336 H       
  42 H42           -2.1006    -2.8184    -1.4852 H       
  43 H43           -3.4109    -2.1572     1.4535 H       
  44 H44           -2.9193    -3.6138     3.4770 H       
  45 H45           -0.6522    -5.9568     7.5026 H       
  46 H46           -1.5867    -6.9318     9.5601 H       
  47 H47            2.1378    -8.8802    10.3289 H       
  48 H48            3.0690    -7.9149     8.2653 H       
  49 H49           -1.8020    -7.0873    11.1868 H       
  50 H50           -2.4507   -10.0586    11.4460 H       
  51 H51           -3.6430    -8.7420    11.3322 H       
  52 H52           -2.5735    -9.0957     9.9540 H       
  53 H53           -0.9706    -7.3367    13.5095 H       
  54 H54           -2.7070    -7.7148    13.4085 H       
  55 H55           -1.5146    -9.0314    13.5223 H       
@<TRIPOS>BOND
   1    1    2 am
   2    1    9 1
   3    1   10 2
   4    2    3 am
   5    2   12 1
   6    3    4 1
   7    3   11 2
   8    4    5 ar
   9    4    9 ar
  10    5    6 ar
  11    5   35 1
  12    6    7 ar
  13    6   36 1
  14    7    8 ar
  15    7   37 1
  16    8    9 ar
  17    8   38 1
  18   12   13 1
  19   12   14 1
  20   12   39 1
  21   13   40 1
  22   13   41 1
  23   13   42 1
  24   14   15 2
  25   14   18 1
  26   15   16 1
  27   15   43 1
  28   16   17 2
  29   16   44 1
  30   17   18 1
  31   17   20 1
  32   19   20 1
  33   19   23 1
  34   20   21 2
  35   21   22 1
  36   22   23 2
  37   23   24 1
  38   24   25 1
  39   25   26 ar
  40   25   30 ar
  41   26   27 ar
  42   26   45 1
  43   27   28 ar
  44   27   46 1
  45   28   29 ar
  46   28   31 1
  47   29   30 ar
  48   29   47 1
  49   30   48 1
  50   31   32 1
  51   32   33 1
  52   32   34 1
  53   32   49 1
  54   33   50 1
  55   33   51 1
  56   33   52 1
  57   34   53 1
  58   34   54 1
  59   34   55 1

#	End of record

