#	Name: ASD01912938
#	Creating user name:	WinNT
#	Creation time:	15. 06. 2019 20:00

#	Modifying user name:	WinNT
#	Modification time:	15. 06. 2019 20:00

#	Program:	/corina/corina34_cracker 3.40 0067  02.08.2006

@<TRIPOS>MOLECULE
ASD01912938
  58   62    0    0    0
SMALL
NO_CHARGES


@<TRIPOS>ATOM
   1 C1             0.1294     1.2496     0.1063 C.ar    
   2 C2             0.1771    -0.1302    -0.4265 C.2     
   3 N3            -0.8952    -0.9336    -0.6802 N.pl3   
   4 C4             1.3013    -0.8277    -0.7586 C.2     
   5 C5             0.9006    -2.0923    -1.2215 C.2     
   6 N6            -0.4138    -2.1529    -1.1735 N.2     
   7 C7             1.8041    -3.1735    -1.6884 C.ar    
   8 C8             1.2756    -4.3867    -2.1242 C.ar    
   9 C9             3.1832    -2.9767    -1.6978 C.ar    
  10 C10            4.0188    -3.9855    -2.1329 C.ar    
  11 C11            3.4892    -5.1900    -2.5592 C.ar    
  12 C12            2.1203    -5.3887    -2.5573 C.ar    
  13 C13           -2.3026    -0.5832    -0.4733 C.3     
  14 C14           -2.8887    -0.0743    -1.7650 C.2     
  15 N15           -4.1796     0.3100    -1.8141 N.am    
  16 O16           -2.1988    -0.0106    -2.7604 O.2     
  17 C17           -4.7715     0.8097    -3.0644 C.3     
  18 C18           -6.0681     0.0379    -3.3316 C.3     
  19 N19           -6.9395     0.1278    -2.1524 N.3     
  20 C20           -6.3200    -0.5084    -0.9822 C.3     
  21 C21           -5.0354     0.2352    -0.6202 C.3     
  22 C22           -8.1843    -0.4182    -2.4128 C.ar    
  23 C23           -9.3356     0.1736    -1.8653 C.ar    
  24 C24            1.2358     1.7839     0.7669 C.ar    
  25 C25            1.1851     3.0711     1.2614 C.ar    
  26 C26            0.0402     3.8314     1.1032 C.ar    
  27 C27           -1.0605     3.3070     0.4494 C.ar    
  28 C28           -1.0200     2.0234    -0.0551 C.ar    
  29 N29           -8.2848    -1.4918    -3.1808 N.ar    
  30 C30           -9.4511    -2.0434    -3.4544 C.ar    
  31 C31          -10.6277    -1.5212    -2.9480 C.ar    
  32 C32          -10.5834    -0.3964    -2.1433 C.ar    
  33 C33           -9.2339     1.3379    -1.0379 C.1     
  34 N34           -9.1531     2.2616    -0.3816 N.1     
  35 H35            2.3178    -0.4713    -0.6804 H       
  36 H36            0.2070    -4.5429    -2.1229 H       
  37 H37            3.5978    -2.0364    -1.3655 H       
  38 H38            5.0881    -3.8338    -2.1409 H       
  39 H39            4.1465    -5.9766    -2.8992 H       
  40 H40            1.7120    -6.3312    -2.8908 H       
  41 H41           -2.8527    -1.4660    -0.1476 H       
  42 H42           -2.3756     0.1922     0.2892 H       
  43 H43           -4.9917     1.8727    -2.9660 H       
  44 H44           -4.0750     0.6518    -3.8879 H       
  45 H45           -6.5770     0.4692    -4.1936 H       
  46 H46           -5.8343    -1.0076    -3.5322 H       
  47 H47           -7.0116    -0.4734    -0.1404 H       
  48 H48           -6.0827    -1.5463    -1.2155 H       
  49 H49           -4.5137    -0.2999     0.1732 H       
  50 H50           -5.2779     1.2443    -0.2871 H       
  51 H51            2.1300     1.1913     0.8913 H       
  52 H52            2.0408     3.4858     1.7734 H       
  53 H53            0.0053     4.8383     1.4921 H       
  54 H54           -1.9517     3.9052     0.3297 H       
  55 H55           -1.8798     1.6152    -0.5656 H       
  56 H56           -9.4882    -2.9188    -4.0859 H       
  57 H57          -11.5742    -1.9856    -3.1822 H       
  58 H58          -11.4889     0.0288    -1.7363 H       
@<TRIPOS>BOND
   1    1    2 1
   2    1   24 ar
   3    1   28 ar
   4    2    3 1
   5    2    4 2
   6    3   13 1
   7    3    6 1
   8    4    5 1
   9    4   35 1
  10    5    6 2
  11    5    7 1
  12    7    8 ar
  13    7    9 ar
  14    8   12 ar
  15    8   36 1
  16    9   10 ar
  17    9   37 1
  18   10   11 ar
  19   10   38 1
  20   11   12 ar
  21   11   39 1
  22   12   40 1
  23   13   14 1
  24   13   41 1
  25   13   42 1
  26   14   15 am
  27   14   16 2
  28   15   17 1
  29   15   21 1
  30   17   18 1
  31   17   43 1
  32   17   44 1
  33   18   19 1
  34   18   45 1
  35   18   46 1
  36   19   20 1
  37   19   22 1
  38   20   21 1
  39   20   47 1
  40   20   48 1
  41   21   49 1
  42   21   50 1
  43   22   23 ar
  44   22   29 ar
  45   23   33 1
  46   23   32 ar
  47   24   25 ar
  48   24   51 1
  49   25   26 ar
  50   25   52 1
  51   26   27 ar
  52   26   53 1
  53   27   28 ar
  54   27   54 1
  55   28   55 1
  56   29   30 ar
  57   30   31 ar
  58   30   56 1
  59   31   32 ar
  60   31   57 1
  61   32   58 1
  62   33   34 3

#	End of record

