#	Name: ASD03731210
#	Creating user name:	WinNT
#	Creation time:	15. 06. 2019 20:45

#	Modifying user name:	WinNT
#	Modification time:	15. 06. 2019 20:45

#	Program:	/corina/corina34_cracker 3.40 0067  02.08.2006

@<TRIPOS>MOLECULE
ASD03731210
  65   71    0    0    0
SMALL
NO_CHARGES


@<TRIPOS>ATOM
   1 C1            -0.0191     1.4720     0.0336 C.2     
   2 C2            -0.0015    -0.0060     0.0382 C.ar    
   3 C3             1.2139    -0.6926     0.0472 C.ar    
   4 C4             1.2232    -2.0721     0.0513 C.ar    
   5 C5             0.0315    -2.7751     0.0465 C.ar    
   6 C6            -1.1766    -2.1007     0.0375 C.ar    
   7 C7            -1.2001    -0.7214     0.0392 C.ar    
   8 O8             1.0263     2.0923     0.0378 O.2     
   9 N9            -1.1942     2.1319     0.0193 N.am    
  10 C10            0.0495    -4.2820     0.0505 C.3     
  11 O11           -2.1584    -1.4813     6.2933 O.3     
  12 C12           -2.4076    -1.5546     7.7095 C.3     
  13 O13           -2.9109    -2.8901     7.8998 O.3     
  14 C14           -2.3711    -3.6320     6.8885 C.ar    
  15 C15           -1.9094    -2.7653     5.9005 C.ar    
  16 C16           -2.2330    -4.9992     6.7288 C.ar    
  17 C17           -1.6361    -5.5186     5.5840 C.ar    
  18 C18           -1.1863    -4.6431     4.6003 C.ar    
  19 C19           -1.3170    -3.2793     4.7593 C.ar    
  20 O20           -1.3899    -6.8156     5.2411 O.3     
  21 C21           -0.6248    -5.4941     3.4929 C.3     
  22 C22           -1.1568    -6.8956     3.8217 C.3     
  23 N23            0.0476    -4.7667     1.4330 N.am    
  24 C24           -1.0716    -5.0294     2.1368 C.2     
  25 C25            0.8742    -5.4602     3.4510 C.ar    
  26 C26            1.8587    -5.7660     4.3640 C.ar    
  27 C27            3.1912    -5.6295     4.0180 C.ar    
  28 C28            3.5320    -5.1848     2.7535 C.ar    
  29 C29            2.5495    -4.8764     1.8358 C.ar    
  30 C30            1.2055    -5.0111     2.1753 C.ar    
  31 O31           -2.2154    -4.9136     1.7502 O.2     
  32 C32           -1.2149     3.5256     0.1325 C.ar    
  33 C33           -2.1865     4.2635    -0.5316 C.ar    
  34 C34           -2.2042     5.6396    -0.4177 C.ar    
  35 C35           -1.2556     6.2832     0.3561 C.ar    
  36 C36           -0.2871     5.5516     1.0184 C.ar    
  37 C37           -0.2677     4.1744     0.9137 C.ar    
  38 C38           -1.2773     7.7851     0.4773 C.3     
  39 C39           -3.2199     3.5632    -1.3758 C.3     
  40 H40            2.1448    -0.1450     0.0506 H       
  41 H41            2.1629    -2.6045     0.0580 H       
  42 H42           -2.1032    -2.6555     0.0338 H       
  43 H43           -2.1438    -0.1962     0.0366 H       
  44 H44           -2.0255     1.6401    -0.0696 H       
  45 H45           -0.8332    -4.6572    -0.4672 H       
  46 H46            0.9466    -4.6360    -0.4574 H       
  47 H47           -1.4834    -1.4103     8.2690 H       
  48 H48           -3.1546    -0.8181     8.0055 H       
  49 H49           -2.5909    -5.6679     7.4976 H       
  50 H50           -0.9566    -2.6105     3.9917 H       
  51 H51           -0.4101    -7.6564     3.5943 H       
  52 H52           -2.0863    -7.0920     3.2872 H       
  53 H53            1.5903    -6.1129     5.3509 H       
  54 H54            3.9636    -5.8701     4.7335 H       
  55 H55            4.5722    -5.0782     2.4834 H       
  56 H56            2.8235    -4.5291     0.8505 H       
  57 H57           -2.9593     6.2139    -0.9338 H       
  58 H58            0.4524     6.0572     1.6216 H       
  59 H59            0.4861     3.6032     1.4352 H       
  60 H60           -1.8994     8.0723     1.3250 H       
  61 H61           -0.2624     8.1520     0.6307 H       
  62 H62           -1.6858     8.2175    -0.4361 H       
  63 H63           -4.0861     3.3184    -0.7610 H       
  64 H64           -3.5267     4.2176    -2.1917 H       
  65 H65           -2.7943     2.6470    -1.7853 H       
@<TRIPOS>BOND
   1    1    2 1
   2    1    8 2
   3    1    9 am
   4    2    3 ar
   5    2    7 ar
   6    3    4 ar
   7    3   40 1
   8    4    5 ar
   9    4   41 1
  10    5    6 ar
  11    5   10 1
  12    6    7 ar
  13    6   42 1
  14    7   43 1
  15    9   32 1
  16    9   44 1
  17   10   23 1
  18   10   45 1
  19   10   46 1
  20   11   12 1
  21   11   15 1
  22   12   13 1
  23   12   47 1
  24   12   48 1
  25   13   14 1
  26   14   15 ar
  27   14   16 ar
  28   15   19 ar
  29   16   17 ar
  30   16   49 1
  31   17   18 ar
  32   17   20 1
  33   18   19 ar
  34   18   21 1
  35   19   50 1
  36   20   22 1
  37   21   22 1
  38   21   24 1
  39   21   25 1
  40   22   51 1
  41   22   52 1
  42   23   24 am
  43   23   30 1
  44   24   31 2
  45   25   26 ar
  46   25   30 ar
  47   26   27 ar
  48   26   53 1
  49   27   28 ar
  50   27   54 1
  51   28   29 ar
  52   28   55 1
  53   29   30 ar
  54   29   56 1
  55   32   33 ar
  56   32   37 ar
  57   33   34 ar
  58   33   39 1
  59   34   35 ar
  60   34   57 1
  61   35   36 ar
  62   35   38 1
  63   36   37 ar
  64   36   58 1
  65   37   59 1
  66   38   60 1
  67   38   61 1
  68   38   62 1
  69   39   63 1
  70   39   64 1
  71   39   65 1

#	End of record

