#	Name: ASD00310402
#	Creating user name:	WinNT
#	Creation time:	15. 06. 2019 18:34

#	Modifying user name:	WinNT
#	Modification time:	15. 06. 2019 18:34

#	Program:	/corina/corina34_cracker 3.40 0067  02.08.2006

@<TRIPOS>MOLECULE
ASD00310402
  43   46    0    0    0
SMALL
NO_CHARGES


@<TRIPOS>ATOM
   1 N1            -0.0164     1.3504     0.0060 N.pl3   
   2 C2             0.0018    -0.0037    -0.0182 C.2     
   3 C3             1.2917    -0.4478    -0.0408 C.2     
   4 C4             2.1473     0.7544    -0.0293 C.ar    
   5 C5             3.5229     0.9581    -0.0422 C.ar    
   6 C6             4.0250     2.2531    -0.0256 C.ar    
   7 C7             3.1476     3.3439     0.0038 C.ar    
   8 C8             1.7851     3.1437     0.0165 C.ar    
   9 C9             1.2695     1.8505     0.0002 C.ar    
  10 C10            1.7396    -1.8447    -0.0703 C.2     
  11 O11            2.9279    -2.1019    -0.0881 O.2     
  12 O12            0.8334    -2.8433    -0.0776 O.3     
  13 C13            5.4908     2.4804    -0.0386 C.ar    
  14 C14            6.1178     3.0731     1.0586 C.ar    
  15 C15            7.4840     3.2820     1.0397 C.ar    
  16 C16            8.2281     2.9049    -0.0635 C.ar    
  17 C17            7.6110     2.3173    -1.1530 C.ar    
  18 C18            6.2480     2.0982    -1.1436 C.ar    
  19 C19            9.7172     3.1355    -0.0788 C.3     
  20 C20           10.4471     2.5281     1.1309 C.3     
  21 C21           11.5598     2.1157     0.1528 C.3     
  22 C22           10.4876     2.1290    -0.9495 C.3     
  23 C23           10.0897     4.5945    -0.3500 C.3     
  24 O24            9.3914     5.0570    -1.5078 O.3     
  25 F25            5.3911     3.4419     2.1362 F       
  26 F26            3.6411     4.6014     0.0202 F       
  27 H27           -0.8206     1.8925     0.0212 H       
  28 H28           -0.8732    -0.6368    -0.0190 H       
  29 H29            4.1969     0.1145    -0.0645 H       
  30 H30            1.1157     3.9910     0.0392 H       
  31 H31            1.1763    -3.7472    -0.0973 H       
  32 H32            7.9712     3.7407     1.8875 H       
  33 H33            8.1976     2.0251    -2.0114 H       
  34 H34            5.7689     1.6352    -1.9936 H       
  35 H35           10.7641     3.2678     1.8661 H       
  36 H36            9.9233     1.6831     1.5777 H       
  37 H37           12.3300     2.8758     0.0220 H       
  38 H38           11.9703     1.1255     0.3508 H       
  39 H39            9.9749     1.1749    -1.0714 H       
  40 H40           10.8373     2.5464    -1.8937 H       
  41 H41            9.8136     5.2058     0.5091 H       
  42 H42           11.1638     4.6698    -0.5194 H       
  43 H43            9.5799     5.9767    -1.7396 H       
@<TRIPOS>BOND
   1    1    2 1
   2    1    9 1
   3    1   27 1
   4    2    3 2
   5    2   28 1
   6    3    4 1
   7    3   10 1
   8    4    5 ar
   9    4    9 ar
  10    5    6 ar
  11    5   29 1
  12    6    7 ar
  13    6   13 1
  14    7    8 ar
  15    7   26 1
  16    8    9 ar
  17    8   30 1
  18   10   11 2
  19   10   12 1
  20   12   31 1
  21   13   14 ar
  22   13   18 ar
  23   14   15 ar
  24   14   25 1
  25   15   16 ar
  26   15   32 1
  27   16   17 ar
  28   16   19 1
  29   17   18 ar
  30   17   33 1
  31   18   34 1
  32   19   20 1
  33   19   22 1
  34   19   23 1
  35   20   21 1
  36   20   35 1
  37   20   36 1
  38   21   22 1
  39   21   37 1
  40   21   38 1
  41   22   39 1
  42   22   40 1
  43   23   24 1
  44   23   41 1
  45   23   42 1
  46   24   43 1

#	End of record

