#	Name: ASD00560006
#	Creating user name:	WinNT
#	Creation time:	15. 06. 2019 18:36

#	Modifying user name:	WinNT
#	Modification time:	15. 06. 2019 18:36

#	Program:	/corina/corina34_cracker 3.40 0067  02.08.2006

@<TRIPOS>MOLECULE
ASD00560006
  37   40    0    0    0
SMALL
NO_CHARGES


@<TRIPOS>ATOM
   1 C1             0.0697     1.5237     0.0079 C.2     
   2 C2            -0.0740     0.1318    -0.0172 C.2     
   3 N3            -1.4209    -0.1107    -0.0229 N.pl3   
   4 C4            -2.0552     1.0975    -0.0018 C.2     
   5 N5            -1.1764     2.0566     0.0209 N.2     
   6 C6             1.3747     2.0695     0.0197 C.2     
   7 N7             2.4257     1.2200     0.0062 N.am    
   8 C8             2.2214    -0.1274    -0.0182 C.2     
   9 N9             1.0141    -0.6469    -0.0301 N.2     
  10 O10            1.5470     3.2762     0.0411 O.2     
  11 N11            3.3077    -0.9659    -0.0320 N.pl3   
  12 C12           -2.0642    -1.4267    -0.0478 C.3     
  13 O13           -3.3983    -1.3309     0.4952 O.3     
  14 C14           -4.3242    -1.6032    -0.5421 C.3     
  15 C15           -3.5838    -2.5874    -1.4863 C.3     
  16 C16           -2.1945    -1.9224    -1.5132 C.3     
  17 C17           -5.6597    -2.1962    -0.1442 C.3     
  18 O18           -4.2778    -2.5329    -2.7377 O.3     
  19 P19           -5.8703    -2.8863    -2.7082 P.3     
  20 O20           -6.4702    -2.2442    -1.3432 O.3     
  21 O21           -6.6011    -2.2384    -3.9881 O.3     
  22 O22           -6.0625    -4.3537    -2.7036 O.2     
  23 O23           -2.1678    -0.8266    -2.4299 O.3     
  24 N24            3.6991     1.7142     0.0166 N.3     
  25 H25           -3.1262     1.2366    -0.0004 H       
  26 H26            4.2028    -0.5988    -0.1016 H       
  27 H27            3.1803    -1.9256     0.0279 H       
  28 H28           -1.4773    -2.1368     0.5347 H       
  29 H29           -4.5136    -0.6793    -1.0887 H       
  30 H30           -3.5442    -3.5980    -1.0799 H       
  31 H31           -1.4175    -2.6488    -1.7512 H       
  32 H32           -5.5179    -3.2024     0.2502 H       
  33 H33           -6.1392    -1.5655     0.6045 H       
  34 H34           -7.5514    -2.4129    -4.0285 H       
  35 H35           -1.3131    -0.3771    -2.4807 H       
  36 H36            4.3754     0.9693     0.0927 H       
  37 H37            3.8742     2.2795    -0.8007 H       
@<TRIPOS>BOND
   1    1    2 2
   2    1    6 1
   3    1    5 1
   4    2    3 1
   5    2    9 1
   6    3    4 1
   7    3   12 1
   8    4    5 2
   9    4   25 1
  10    6    7 am
  11    6   10 2
  12    7    8 1
  13    7   24 1
  14    8    9 2
  15    8   11 1
  16   11   26 1
  17   11   27 1
  18   12   13 1
  19   12   16 1
  20   12   28 1
  21   13   14 1
  22   14   15 1
  23   14   17 1
  24   14   29 1
  25   15   16 1
  26   15   18 1
  27   15   30 1
  28   16   23 1
  29   16   31 1
  30   17   20 1
  31   17   32 1
  32   17   33 1
  33   18   19 1
  34   19   20 1
  35   19   21 1
  36   19   22 2
  37   21   34 1
  38   23   35 1
  39   24   36 1
  40   24   37 1

#	End of record

