#	Name: ASD00100097
#	Creating user name:	WinNT
#	Creation time:	15. 06. 2019 18:30

#	Modifying user name:	WinNT
#	Modification time:	15. 06. 2019 18:30

#	Program:	/corina/corina34_cracker 3.40 0067  02.08.2006

@<TRIPOS>MOLECULE
ASD00100097
  45   45    0    0    0
SMALL
NO_CHARGES


@<TRIPOS>ATOM
   1 C1            -0.6798     2.1537     0.9773 C.1     
   2 C2            -0.0007     1.4562    -0.1268 C.3     
   3 C3             1.4613     1.9028    -0.1896 C.3     
   4 C4             1.5243     3.4267    -0.3119 C.3     
   5 C5             2.9757     3.8618    -0.5237 C.3     
   6 C6             3.0541     5.3897    -0.5313 C.3     
   7 C7             4.4825     5.8255    -0.8644 C.3     
   8 C8             4.5341     7.3492    -0.9924 C.3     
   9 N9            -1.2039     2.6919     1.8294 N.1     
  10 C10            2.1732     1.4699     1.0661 C.ar    
  11 C11            3.2651     0.6174     0.9865 C.ar    
  12 C12            3.9182     0.2207     2.1441 C.ar    
  13 C13            3.4802     0.6750     3.3733 C.ar    
  14 C14            2.3919     1.5239     3.4500 C.ar    
  15 C15            1.7428     1.9258     2.2969 C.ar    
  16 O16            3.6937     0.1715    -0.2236 O.3     
  17 C17            4.8235    -0.7034    -0.2297 C.3     
  18 C18           -0.0628    -0.0542     0.1092 C.3     
  19 O19            0.5561    -0.7332    -0.9853 O.3     
  20 C20            0.4535    -2.1569    -0.9190 C.3     
  21 H21           -0.4951     1.6976    -1.0678 H       
  22 H22            1.9431     1.4486    -1.0554 H       
  23 H23            0.9210     3.7482    -1.1609 H       
  24 H24            1.1383     3.8807     0.6008 H       
  25 H25            3.5940     3.4702     0.2842 H       
  26 H26            3.3357     3.4747    -1.4769 H       
  27 H27            2.3694     5.7850    -1.2816 H       
  28 H28            2.7772     5.7727     0.4510 H       
  29 H29            5.1551     5.5047    -0.0689 H       
  30 H30            4.7906     5.3711    -1.8060 H       
  31 H31            4.2259     7.8036    -0.0507 H       
  32 H32            5.5517     7.6596    -1.2297 H       
  33 H33            3.8615     7.6700    -1.7879 H       
  34 H34            4.7681    -0.4431     2.0848 H       
  35 H35            3.9884     0.3664     4.2749 H       
  36 H36            2.0506     1.8774     4.4117 H       
  37 H37            0.8958     2.5929     2.3590 H       
  38 H38            5.6791    -0.1951     0.2149 H       
  39 H39            4.5927    -1.5988     0.3474 H       
  40 H40            5.0605    -0.9837    -1.2561 H       
  41 H41            0.4619    -0.2996     1.0325 H       
  42 H42           -1.1039    -0.3670     0.1888 H       
  43 H43            0.8533    -2.5061     0.0330 H       
  44 H44           -0.5930    -2.4501    -1.0030 H       
  45 H45            1.0219    -2.6007    -1.7364 H       
@<TRIPOS>BOND
   1    1    2 1
   2    1    9 3
   3    2    3 1
   4    2   18 1
   5    2   21 1
   6    3    4 1
   7    3   10 1
   8    3   22 1
   9    4    5 1
  10    4   23 1
  11    4   24 1
  12    5    6 1
  13    5   25 1
  14    5   26 1
  15    6    7 1
  16    6   27 1
  17    6   28 1
  18    7    8 1
  19    7   29 1
  20    7   30 1
  21    8   31 1
  22    8   32 1
  23    8   33 1
  24   10   11 ar
  25   10   15 ar
  26   11   12 ar
  27   11   16 1
  28   12   13 ar
  29   12   34 1
  30   13   14 ar
  31   13   35 1
  32   14   15 ar
  33   14   36 1
  34   15   37 1
  35   16   17 1
  36   17   38 1
  37   17   39 1
  38   17   40 1
  39   18   19 1
  40   18   41 1
  41   18   42 1
  42   19   20 1
  43   20   43 1
  44   20   44 1
  45   20   45 1

#	End of record

