#	Name: ASD01730047
#	Creating user name:	WinNT
#	Creation time:	15. 06. 2019 19:23

#	Modifying user name:	WinNT
#	Modification time:	15. 06. 2019 19:23

#	Program:	/corina/corina34_cracker 3.40 0067  02.08.2006

@<TRIPOS>MOLECULE
ASD01730047
  27   28    0    0    0
SMALL
NO_CHARGES


@<TRIPOS>ATOM
   1 N1             0.1465     1.2558    -0.3166 N.pl3   
   2 C2            -0.0325    -0.0680     0.0082 C.2     
   3 N3            -1.2872    -0.6348    -0.0743 N.pl3   
   4 N4             0.9829    -0.7869     0.3940 N.2     
   5 N5            -2.5993    -2.5355    -0.2334 N.2     
   6 C6            -1.4183    -1.9909    -0.2797 C.2     
   7 S7             0.0152    -2.9632    -0.6017 S.3     
   8 C8            -0.4935    -4.5083     0.1938 C.3     
   9 C9            -1.8963    -4.8497    -0.2400 C.ar    
  10 C10           -2.8559    -3.8588    -0.4306 C.ar    
  11 C11           -2.2218    -6.1767    -0.4498 C.ar    
  12 C12           -3.4963    -6.5299    -0.8524 C.ar    
  13 C13           -4.4559    -5.5529    -1.0488 C.ar    
  14 C14           -4.1454    -4.2274    -0.8415 C.ar    
  15 C15            1.4791     1.8579    -0.2290 C.3     
  16 H16           -0.6089     1.7901    -0.6077 H       
  17 H17           -2.0772    -0.0787     0.0122 H       
  18 H18            0.8409    -1.6854     0.7309 H       
  19 H19            0.1841    -5.3098    -0.1005 H       
  20 H20           -0.4665    -4.3865     1.2767 H       
  21 H21           -1.4755    -6.9425    -0.2984 H       
  22 H22           -3.7428    -7.5689    -1.0141 H       
  23 H23           -5.4505    -5.8303    -1.3655 H       
  24 H24           -4.8980    -3.4684    -0.9958 H       
  25 H25            2.1613     1.3289    -0.8945 H       
  26 H26            1.4244     2.9060    -0.5232 H       
  27 H27            1.8433     1.7867     0.7959 H       
@<TRIPOS>BOND
   1    1    2 1
   2    1   15 1
   3    1   16 1
   4    2    3 1
   5    2    4 2
   6    3    6 1
   7    3   17 1
   8    4   18 1
   9    5    6 2
  10    5   10 1
  11    6    7 1
  12    7    8 1
  13    8    9 1
  14    8   19 1
  15    8   20 1
  16    9   10 ar
  17    9   11 ar
  18   10   14 ar
  19   11   12 ar
  20   11   21 1
  21   12   13 ar
  22   12   22 1
  23   13   14 ar
  24   13   23 1
  25   14   24 1
  26   15   25 1
  27   15   26 1
  28   15   27 1

#	End of record

