#	Name: ASD06170160
#	Creating user name:	WinNT
#	Creation time:	15. 06. 2019 21:05

#	Modifying user name:	WinNT
#	Modification time:	15. 06. 2019 21:05

#	Program:	/corina/corina34_cracker 3.40 0067  02.08.2006

@<TRIPOS>MOLECULE
ASD06170160
  66   70    0    0    0
SMALL
NO_CHARGES


@<TRIPOS>ATOM
   1 N1            -0.2837    -3.3126    -0.0779 N.pl3   
   2 N2            -0.6592    -2.3258    -0.9943 N.am    
   3 C3             0.4185    -1.5618    -1.2685 C.2     
   4 C4             1.5307    -2.1073    -0.4743 C.2     
   5 C5             1.0205    -3.1803     0.2301 C.2     
   6 C6             2.9111    -1.6094    -0.4383 C.2     
   7 O7             3.7375    -2.1578     0.2669 O.2     
   8 N8             3.2633    -0.5450    -1.1862 N.am    
   9 C9            -1.9378    -2.1589    -1.5363 C.ar    
  10 C10           -2.4385    -0.8825    -1.7579 C.ar    
  11 C11           -3.7011    -0.7211    -2.2937 C.ar    
  12 C12           -4.4668    -1.8286    -2.6090 C.ar    
  13 C13           -3.9714    -3.1008    -2.3891 C.ar    
  14 C14           -2.7071    -3.2691    -1.8594 C.ar    
  15 O15            0.4623    -0.6094    -2.0246 O.2     
  16 C16            1.7933    -4.0553     1.1831 C.3     
  17 C17           -1.1780    -4.3351     0.4708 C.3     
  18 C18            4.5594    -0.0228    -1.0944 C.ar    
  19 C19            5.6384    -0.8737    -0.8925 C.ar    
  20 C20            6.9173    -0.3573    -0.8020 C.ar    
  21 C21            7.1224     1.0127    -0.9131 C.ar    
  22 C22            6.0445     1.8612    -1.1142 C.ar    
  23 C23            4.7667     1.3449    -1.2109 C.ar    
  24 O24            8.3806     1.5213    -0.8241 O.3     
  25 C25            9.2520     4.9161    -1.8183 C.ar    
  26 C26            9.1266     3.5347    -1.8713 C.ar    
  27 C27            8.5228     2.8710    -0.8097 C.ar    
  28 C28            8.0662     3.6261     0.2706 C.ar    
  29 C29            8.2269     4.9948     0.2511 C.ar    
  30 N30            8.8046     5.5954    -0.7731 N.ar    
  31 C31           10.0848     6.9204    -2.7815 C.2     
  32 O32            9.8488     7.5065    -1.7428 O.2     
  33 N33            9.8607     5.5946    -2.8731 N.am    
  34 N34           10.5706     7.5966    -3.8414 N.am    
  35 C35           10.8602     9.0375    -3.8790 C.3     
  36 C36           11.3712     9.3652    -5.2979 C.3     
  37 C37           10.8059     8.1977    -6.1491 C.3     
  38 C38           10.9054     7.0126    -5.1530 C.3     
  39 F39            7.9675    -1.1840    -0.6051 F       
  40 H40            2.6190    -0.1407    -1.7882 H       
  41 H41           -1.8412    -0.0172    -1.5112 H       
  42 H42           -4.0910     0.2712    -2.4663 H       
  43 H43           -5.4540    -1.6997    -3.0276 H       
  44 H44           -4.5722    -3.9637    -2.6358 H       
  45 H45           -2.3189    -4.2630    -1.6924 H       
  46 H46            2.2264    -4.8933     0.6370 H       
  47 H47            2.5898    -3.4730     1.6464 H       
  48 H48            1.1226    -4.4324     1.9552 H       
  49 H49           -1.2257    -5.1816    -0.2142 H       
  50 H50           -0.7983    -4.6698     1.4362 H       
  51 H51           -2.1755    -3.9146     0.5988 H       
  52 H52            5.4782    -1.9382    -0.8059 H       
  53 H53            6.2044     2.9258    -1.2001 H       
  54 H54            3.9282     2.0061    -1.3728 H       
  55 H55            9.4922     2.9837    -2.7252 H       
  56 H56            7.5918     3.1437     1.1125 H       
  57 H57            7.8752     5.5843     1.0849 H       
  58 H58           10.1228     5.1125    -3.6730 H       
  59 H59            9.9521     9.6037    -3.6722 H       
  60 H60           11.6269     9.2808    -3.1435 H       
  61 H61           10.9728    10.3203    -5.6402 H       
  62 H62           12.4609     9.3690    -5.3240 H       
  63 H63            9.7709     8.3872    -6.4338 H       
  64 H64           11.4250     8.0198    -7.0284 H       
  65 H65           11.9175     6.6082    -5.1409 H       
  66 H66           10.1884     6.2351    -5.4163 H       
@<TRIPOS>BOND
   1    1    2 1
   2    1    5 1
   3    1   17 1
   4    2    3 am
   5    2    9 1
   6    3    4 1
   7    3   15 2
   8    4    5 2
   9    4    6 1
  10    5   16 1
  11    6    7 2
  12    6    8 am
  13    8   18 1
  14    8   40 1
  15    9   10 ar
  16    9   14 ar
  17   10   11 ar
  18   10   41 1
  19   11   12 ar
  20   11   42 1
  21   12   13 ar
  22   12   43 1
  23   13   14 ar
  24   13   44 1
  25   14   45 1
  26   16   46 1
  27   16   47 1
  28   16   48 1
  29   17   49 1
  30   17   50 1
  31   17   51 1
  32   18   19 ar
  33   18   23 ar
  34   19   20 ar
  35   19   52 1
  36   20   21 ar
  37   20   39 1
  38   21   22 ar
  39   21   24 1
  40   22   23 ar
  41   22   53 1
  42   23   54 1
  43   24   27 1
  44   25   26 ar
  45   25   30 ar
  46   25   33 1
  47   26   27 ar
  48   26   55 1
  49   27   28 ar
  50   28   29 ar
  51   28   56 1
  52   29   30 ar
  53   29   57 1
  54   31   32 2
  55   31   33 am
  56   31   34 am
  57   33   58 1
  58   34   35 1
  59   34   38 1
  60   35   36 1
  61   35   59 1
  62   35   60 1
  63   36   37 1
  64   36   61 1
  65   36   62 1
  66   37   38 1
  67   37   63 1
  68   37   64 1
  69   38   65 1
  70   38   66 1

#	End of record

