#	Name: ASD00510015
#	Creating user name:	WinNT
#	Creation time:	15. 06. 2019 18:36

#	Modifying user name:	WinNT
#	Modification time:	15. 06. 2019 18:36

#	Program:	/corina/corina34_cracker 3.40 0067  02.08.2006

@<TRIPOS>MOLECULE
ASD00510015
  46   49    0    0    0
SMALL
NO_CHARGES


@<TRIPOS>ATOM
   1 C1            -0.0169     1.3952     0.0097 C.ar    
   2 C2             0.0021    -0.0041     0.0020 C.ar    
   3 C3             1.1964    -0.6620    -0.0129 C.ar    
   4 C4             2.3990     0.0400    -0.0205 C.ar    
   5 C5             2.4162     1.4018    -0.0129 C.ar    
   6 C6             1.2039     2.1123     0.0019 C.ar    
   7 C7             1.1825     3.5186     0.0085 C.ar    
   8 C8             0.0048     4.1971     0.0224 C.ar    
   9 C9            -1.2230     3.5371     0.0306 C.ar    
  10 C10           -1.2751     2.1411     0.0196 C.ar    
  11 N11           -2.4684     1.4904     0.0222 N.2     
  12 N12           -3.5695     2.1624     0.0310 N.2     
  13 O13           -2.3746     4.2549     0.0444 O.3     
  14 S14            2.7013     4.4120    -0.0007 S.o2    
  15 O15            2.9812     4.7414     1.3529 O.2     
  16 O16            3.5958     3.6741    -0.8220 O.2     
  17 O17            2.4449     5.7289    -0.7194 O.3     
  18 C18           -4.7629     1.5117     0.0336 C.ar    
  19 C19           -7.2419     1.5406     0.0463 C.ar    
  20 C20           -7.2205     0.1342     0.0401 C.ar    
  21 C21           -6.0427    -0.5443     0.0354 C.ar    
  22 C22           -4.8149     0.1157     0.0327 C.ar    
  23 C23           -6.0211     2.2576     0.0435 C.ar    
  24 C24           -6.0402     3.6569     0.0507 C.ar    
  25 C25           -7.2347     4.3147     0.0603 C.ar    
  26 C26           -8.4372     3.6127     0.0630 C.ar    
  27 C27           -8.4542     2.2508     0.0562 C.ar    
  28 O28           -3.6632    -0.6022     0.0288 O.3     
  29 S29           -8.7393    -0.7591     0.0437 S.o2    
  30 O30           -9.0007    -1.1007     1.3980 O.2     
  31 O31           -9.6449    -0.0141    -0.7588 O.2     
  32 O32           -8.4929    -2.0696    -0.6902 O.3     
  33 H33           -0.9240    -0.5598     0.0082 H       
  34 H34            1.2099    -1.7419    -0.0184 H       
  35 H35            3.3321    -0.5036    -0.0323 H       
  36 H36            3.3565     1.9329    -0.0183 H       
  37 H37            0.0207     5.2770     0.0275 H       
  38 H38           -2.7165     4.4670    -0.8349 H       
  39 H39            3.2220     6.3013    -0.7807 H       
  40 H40           -6.0586    -1.6242     0.0306 H       
  41 H41           -5.1142     4.2127     0.0490 H       
  42 H42           -7.2482     5.3946     0.0662 H       
  43 H43           -9.3705     4.1563     0.0710 H       
  44 H44           -9.3946     1.7197     0.0581 H       
  45 H45           -3.3319    -0.8093    -0.8558 H       
  46 H46           -9.2707    -2.6414    -0.7459 H       
@<TRIPOS>BOND
   1    1    2 ar
   2    1    6 ar
   3    1   10 ar
   4    2    3 ar
   5    2   33 1
   6    3    4 ar
   7    3   34 1
   8    4    5 ar
   9    4   35 1
  10    5    6 ar
  11    5   36 1
  12    6    7 ar
  13    7    8 ar
  14    7   14 1
  15    8    9 ar
  16    8   37 1
  17    9   10 ar
  18    9   13 1
  19   10   11 1
  20   11   12 2
  21   12   18 1
  22   13   38 1
  23   14   15 2
  24   14   16 2
  25   14   17 1
  26   17   39 1
  27   18   23 ar
  28   18   22 ar
  29   19   20 ar
  30   19   23 ar
  31   19   27 ar
  32   20   21 ar
  33   20   29 1
  34   21   22 ar
  35   21   40 1
  36   22   28 1
  37   23   24 ar
  38   24   25 ar
  39   24   41 1
  40   25   26 ar
  41   25   42 1
  42   26   27 ar
  43   26   43 1
  44   27   44 1
  45   28   45 1
  46   29   30 2
  47   29   31 2
  48   29   32 1
  49   32   46 1

#	End of record

