#	Name: ASD08170135
#	Creating user name:	WinNT
#	Creation time:	15. 06. 2019 21:17

#	Modifying user name:	WinNT
#	Modification time:	15. 06. 2019 21:17

#	Program:	/corina/corina34_cracker 3.40 0067  02.08.2006

@<TRIPOS>MOLECULE
ASD08170135
  61   64    0    0    0
SMALL
NO_CHARGES


@<TRIPOS>ATOM
   1 C1            -0.0184     1.5028     0.0103 C.3     
   2 C2             3.1542     4.2782    -0.0051 C.3     
   3 C3             3.3060     5.8007     0.0016 C.3     
   4 C4             4.7695     6.1596    -0.0104 C.2     
   5 C5             0.0021    -0.0041     0.0020 C.2     
   6 S6             5.7923     6.3995     1.4077 S.3     
   7 C7             7.1476     6.7401     0.3296 C.2     
   8 N8             6.7135     6.6431    -0.8940 N.2     
   9 N9             5.5008     6.3412    -1.0624 N.2     
  10 S10            0.0025    -1.0354    -1.4301 S.3     
  11 N11            0.0280    -0.7714     1.0436 N.2     
  12 N12            0.0423    -2.0187     0.8585 N.2     
  13 C13            0.0318    -2.4470    -0.3710 C.2     
  14 N14            0.0441    -3.7762    -0.7763 N.am    
  15 C15            0.0699    -4.7610     0.1434 C.2     
  16 O16            0.0823    -4.4866     1.3276 O.2     
  17 N17            8.4445     7.0551     0.7170 N.am    
  18 C18            9.3875     7.2935    -0.2160 C.2     
  19 C19           10.7668     7.6286     0.1960 C.ar    
  20 O20            9.1035     7.2330    -1.3964 O.2     
  21 C21            0.0830    -6.1747    -0.2877 C.ar    
  22 C22           11.0962     7.6989     1.5506 C.ar    
  23 C23            0.0688    -6.4933    -1.6466 C.ar    
  24 C24            1.4170     2.0324    -0.0006 C.3     
  25 S25            1.3924     3.8462     0.0094 S.3     
  26 C26            0.0812    -7.8150    -2.0422 C.ar    
  27 C27            0.1076    -8.8234    -1.0955 C.ar    
  28 C28            0.1213    -8.5145     0.2534 C.ar    
  29 C29            0.1155    -7.1972     0.6624 C.ar    
  30 C30           11.7473     7.8705    -0.7680 C.ar    
  31 C31           13.0326     8.1827    -0.3766 C.ar    
  32 C32           13.3511     8.2564     0.9681 C.ar    
  33 C33           12.3856     8.0122     1.9284 C.ar    
  34 C34            0.1309    -6.8626     2.1317 C.3     
  35 O35            0.1504    -8.0705     2.8951 O.3     
  36 C36           11.4024     7.7902    -2.2327 C.3     
  37 O37           12.5653     8.0762    -3.0123 O.3     
  38 H38           -0.5455     1.8639    -0.8728 H       
  39 H39           -0.5286     1.8543     0.9071 H       
  40 H40            3.6209     3.8705    -0.9018 H       
  41 H41            3.6379     3.8610     0.8781 H       
  42 H42            2.8222     6.2179    -0.8815 H       
  43 H43            2.8392     6.2084     0.8983 H       
  44 H44            0.0342    -3.9952    -1.7212 H       
  45 H45            8.6711     7.1034     1.6589 H       
  46 H46           10.3433     7.5088     2.3012 H       
  47 H47            0.0479    -5.7070    -2.3866 H       
  48 H48            1.9442     1.6713     0.8825 H       
  49 H49            1.9272     1.6808    -0.8974 H       
  50 H50            0.0699    -8.0629    -3.0933 H       
  51 H51            0.1171    -9.8564    -1.4105 H       
  52 H52            0.1415    -9.3065     0.9873 H       
  53 H53           13.7921     8.3697    -1.1213 H       
  54 H54           14.3589     8.5012     1.2692 H       
  55 H55           12.6408     8.0714     2.9761 H       
  56 H56            1.0190    -6.2736     2.3609 H       
  57 H57           -0.7608    -6.2883     2.3830 H       
  58 H58            0.1611    -7.9309     3.8519 H       
  59 H59           11.0451     6.7875    -2.4675 H       
  60 H60           10.6230     8.5167    -2.4628 H       
  61 H61           12.4168     8.0425    -3.9673 H       
@<TRIPOS>BOND
   1    1    5 1
   2    1   24 1
   3    1   38 1
   4    1   39 1
   5    2    3 1
   6    2   25 1
   7    2   40 1
   8    2   41 1
   9    3    4 1
  10    3   42 1
  11    3   43 1
  12    4    6 1
  13    4    9 2
  14    5   10 1
  15    5   11 2
  16    6    7 1
  17    7    8 2
  18    7   17 1
  19    8    9 1
  20   10   13 1
  21   11   12 1
  22   12   13 2
  23   13   14 1
  24   14   15 am
  25   14   44 1
  26   15   16 2
  27   15   21 1
  28   17   18 am
  29   17   45 1
  30   18   19 1
  31   18   20 2
  32   19   22 ar
  33   19   30 ar
  34   21   23 ar
  35   21   29 ar
  36   22   33 ar
  37   22   46 1
  38   23   26 ar
  39   23   47 1
  40   24   25 1
  41   24   48 1
  42   24   49 1
  43   26   27 ar
  44   26   50 1
  45   27   28 ar
  46   27   51 1
  47   28   29 ar
  48   28   52 1
  49   29   34 1
  50   30   31 ar
  51   30   36 1
  52   31   32 ar
  53   31   53 1
  54   32   33 ar
  55   32   54 1
  56   33   55 1
  57   34   35 1
  58   34   56 1
  59   34   57 1
  60   35   58 1
  61   36   37 1
  62   36   59 1
  63   36   60 1
  64   37   61 1

#	End of record

