#	Name: ASD03490040
#	Creating user name:	WinNT
#	Creation time:	15. 06. 2019 20:42

#	Modifying user name:	WinNT
#	Modification time:	15. 06. 2019 20:42

#	Program:	/corina/corina34_cracker 3.40 0067  02.08.2006

@<TRIPOS>MOLECULE
ASD03490040
  61   60    0    0    0
SMALL
NO_CHARGES


@<TRIPOS>ATOM
   1 O1            -0.3859     0.5480    -1.0108 O.co2   
   2 C2            -0.2330     1.7368    -0.7878 C.2     
   3 C3             1.1458     2.2812    -0.5164 C.3     
   4 O4            -1.1948     2.4860    -0.7894 O.co2   
   5 O5             2.1111     1.2419    -0.6893 O.3     
   6 C6             1.4449     3.4231    -1.4914 C.3     
   7 O7             1.2089     2.7722     0.8242 O.3     
   8 C8             2.4877     3.2905     1.1961 C.3     
   9 C9             2.8406     4.4730     0.2901 C.3     
  10 C10            2.8226     4.0105    -1.1703 C.3     
  11 C11            2.4448     3.7582     2.6522 C.3     
  12 C12            2.2568     2.5493     3.5709 C.3     
  13 C13            2.3386     3.0004     5.0306 C.3     
  14 O14            2.2797     1.8575     5.8864 O.3     
  15 O15            0.9788     1.9588     3.3257 O.3     
  16 C16            1.8141     5.5907     0.4853 C.3     
  17 O17            2.0772     6.6462    -0.4414 O.3     
  18 O18            3.8259     3.0123    -1.3680 O.3     
  19 N19            1.9084     6.1070     1.8531 N.am    
  20 O20           -0.2978     6.2760     2.0137 O.2     
  21 C21            0.7883     6.4209     2.5336 C.2     
  22 C22            0.8853     6.9520     3.9406 C.3     
  23 H23            1.9829     0.4843    -0.1021 H       
  24 H24            1.4407     3.0409    -2.5122 H       
  25 H25            0.6854     4.1982    -1.3885 H       
  26 H26            3.2417     2.5110     1.0866 H       
  27 H27            3.8346     4.8418     0.5432 H       
  28 H28            3.0181     4.8603    -1.8243 H       
  29 H29            3.3796     4.2610     2.9000 H       
  30 H30            1.6133     4.4500     2.7872 H       
  31 H31            3.0395     1.8170     3.3725 H       
  32 H32            3.2771     3.5296     5.1953 H       
  33 H33            1.5032     3.6643     5.2531 H       
  34 H34            2.3265     2.0690     6.8288 H       
  35 H35            0.2336     2.5548     3.4823 H       
  36 H36            0.8120     5.1978     0.3135 H       
  37 H37            2.9218     7.0946    -0.2975 H       
  38 H38            3.8709     2.6736    -2.2726 H       
  39 H39            2.7771     6.2229     2.2689 H       
  40 H40            1.9331     7.0127     4.2346 H       
  41 H41            0.4370     7.9445     3.9860 H       
  42 H42            0.3558     6.2828     4.6188 H       
  43 O43           14.0879    16.1117    16.3232 O.3     
  44 C44           14.1073    14.6829    16.3154 C.3     
  45 C45           12.6719    14.1533    16.3262 C.3     
  46 N46           11.9980    14.5397    15.0794 N.4     
  47 C47           10.6198    14.0312    15.0899 C.3     
  48 C48            9.9179    14.4336    13.7913 C.3     
  49 O49           10.5517    13.7854    12.6867 O.3     
  50 H50           14.9659    16.5170    16.3170 H       
  51 H51           14.6175    14.3313    15.4186 H       
  52 H52           14.6345    14.3218    17.1984 H       
  53 H53           12.6862    13.0666    16.4098 H       
  54 H54           12.1351    14.5760    17.1755 H       
  55 H55           11.9848    15.5456    15.0021 H       
  56 H56           12.4949    14.1484    14.2933 H       
  57 H57           10.6341    12.9445    15.1735 H       
  58 H58           10.0830    14.4539    15.9391 H       
  59 H59            8.8709    14.1341    13.8364 H       
  60 H60            9.9815    15.5143    13.6637 H       
  61 H61           10.1577    13.9952    11.8288 H       
@<TRIPOS>BOND
   1    1    2 ar
   2    2    3 1
   3    2    4 ar
   4    3    5 1
   5    3    6 1
   6    3    7 1
   7    5   23 1
   8    6   10 1
   9    6   24 1
  10    6   25 1
  11    7    8 1
  12    8    9 1
  13    8   11 1
  14    8   26 1
  15    9   10 1
  16    9   16 1
  17    9   27 1
  18   10   18 1
  19   10   28 1
  20   11   12 1
  21   11   29 1
  22   11   30 1
  23   12   13 1
  24   12   15 1
  25   12   31 1
  26   13   14 1
  27   13   32 1
  28   13   33 1
  29   14   34 1
  30   15   35 1
  31   16   17 1
  32   16   19 1
  33   16   36 1
  34   17   37 1
  35   18   38 1
  36   19   21 am
  37   19   39 1
  38   20   21 2
  39   21   22 1
  40   22   40 1
  41   22   41 1
  42   22   42 1
  43   43   44 1
  44   43   50 1
  45   44   45 1
  46   44   51 1
  47   44   52 1
  48   45   46 1
  49   45   53 1
  50   45   54 1
  51   46   47 1
  52   46   55 1
  53   46   56 1
  54   47   48 1
  55   47   57 1
  56   47   58 1
  57   48   49 1
  58   48   59 1
  59   48   60 1
  60   49   61 1

#	End of record

