#	Name: ASD02038361
#	Creating user name:	WinNT
#	Creation time:	15. 06. 2019 20:16

#	Modifying user name:	WinNT
#	Modification time:	15. 06. 2019 20:16

#	Program:	/corina/corina34_cracker 3.40 0067  02.08.2006

@<TRIPOS>MOLECULE
ASD02038361
  52   54    0    0    0
SMALL
NO_CHARGES


@<TRIPOS>ATOM
   1 N1            -0.0137     1.3935     0.0094 N.am    
   2 N2            -2.3807    -6.7997    -1.5606 N.am    
   3 C3            -1.3264    -6.3105    -0.6687 C.3     
   4 C4            -1.2814    -4.7821    -0.7225 C.3     
   5 C5            -0.1804    -4.2713     0.2090 C.3     
   6 C6            -0.1360    -2.7658     0.1561 C.ar    
   7 C7            -0.9037    -2.0218     1.0331 C.ar    
   8 C8            -0.8654    -0.6420     0.9873 C.ar    
   9 C9            -0.0545    -0.0017     0.0588 C.ar    
  10 C10            0.7154    -0.7523    -0.8208 C.ar    
  11 C11            0.6767    -2.1317    -0.7657 C.ar    
  12 C12           -2.0392    -7.0914    -2.9499 C.3     
  13 C13           -3.1085    -7.9890    -3.5753 C.3     
  14 N14           -4.4318    -7.3991    -3.3154 N.3     
  15 C15           -4.7550    -7.4901    -1.8853 C.3     
  16 C16           -3.6115    -6.9643    -1.0648 C.2     
  17 C17           -5.4164    -8.0163    -4.0916 C.ar    
  18 C18           -6.7391    -7.6036    -3.9943 C.ar    
  19 C19           -7.7105    -8.2155    -4.7635 C.ar    
  20 C20           -7.3656    -9.2391    -5.6306 C.ar    
  21 C21           -6.0487    -9.6513    -5.7287 C.ar    
  22 C22           -5.0731    -9.0393    -4.9659 C.ar    
  23 Cl23          -9.3642    -7.7013    -4.6426 Cl      
  24 Cl24          -8.5879   -10.0065    -6.5953 Cl      
  25 O25           -3.8152    -6.6692     0.0938 O.2     
  26 S26            0.8104     2.2394     1.1703 S.o2    
  27 O27            0.6513     3.5998     0.7919 O.2     
  28 O28            0.2838     1.7540     2.3976 O.2     
  29 C29            2.5368     1.7203     0.9688 C.3     
  30 H30           -0.4647     1.8668    -0.7072 H       
  31 H31           -1.5355    -6.6322     0.3516 H       
  32 H32           -0.3651    -6.7138    -0.9870 H       
  33 H33           -1.0723    -4.4605    -1.7427 H       
  34 H34           -2.2427    -4.3789    -0.4042 H       
  35 H35           -0.3895    -4.5929     1.2293 H       
  36 H36            0.7809    -4.6745    -0.1093 H       
  37 H37           -1.5343    -2.5202     1.7545 H       
  38 H38           -1.4655    -0.0615     1.6723 H       
  39 H39            1.3469    -0.2576    -1.5439 H       
  40 H40            1.2753    -2.7158    -1.4490 H       
  41 H41           -1.9769    -6.1587    -3.5105 H       
  42 H42           -1.0749    -7.5983    -2.9865 H       
  43 H43           -2.9442    -8.0586    -4.6506 H       
  44 H44           -3.0575    -8.9827    -3.1304 H       
  45 H45           -5.6509    -6.9046    -1.6789 H       
  46 H46           -4.9366    -8.5319    -1.6210 H       
  47 H47           -7.0081    -6.8057    -3.3180 H       
  48 H48           -5.7824   -10.4497    -6.4056 H       
  49 H49           -4.0452    -9.3616    -5.0434 H       
  50 H50            2.8490     1.8893    -0.0618 H       
  51 H51            3.1710     2.2992     1.6401 H       
  52 H52            2.6277     0.6605     1.2068 H       
@<TRIPOS>BOND
   1    1    9 1
   2    1   26 am
   3    1   30 1
   4    2    3 1
   5    2   12 1
   6    2   16 am
   7    3    4 1
   8    3   31 1
   9    3   32 1
  10    4    5 1
  11    4   33 1
  12    4   34 1
  13    5    6 1
  14    5   35 1
  15    5   36 1
  16    6    7 ar
  17    6   11 ar
  18    7    8 ar
  19    7   37 1
  20    8    9 ar
  21    8   38 1
  22    9   10 ar
  23   10   11 ar
  24   10   39 1
  25   11   40 1
  26   12   13 1
  27   12   41 1
  28   12   42 1
  29   13   14 1
  30   13   43 1
  31   13   44 1
  32   14   15 1
  33   14   17 1
  34   15   16 1
  35   15   45 1
  36   15   46 1
  37   16   25 2
  38   17   18 ar
  39   17   22 ar
  40   18   19 ar
  41   18   47 1
  42   19   20 ar
  43   19   23 1
  44   20   21 ar
  45   20   24 1
  46   21   22 ar
  47   21   48 1
  48   22   49 1
  49   26   27 2
  50   26   28 2
  51   26   29 1
  52   29   50 1
  53   29   51 1
  54   29   52 1

#	End of record

