#	Name: ASD00069197
#	Creating user name:	WinNT
#	Creation time:	15. 06. 2019 18:29

#	Modifying user name:	WinNT
#	Modification time:	15. 06. 2019 18:29

#	Program:	/corina/corina34_cracker 3.40 0067  02.08.2006

@<TRIPOS>MOLECULE
ASD00069197
  73   78    0    0    0
SMALL
NO_CHARGES


@<TRIPOS>ATOM
   1 C1            -0.1055     1.2071    -0.4966 C.2     
   2 N2            -0.0111     0.0053     0.0277 N.2     
   3 C3             1.2356    -0.4504    -0.1476 C.2     
   4 C4             1.9479     0.5104    -0.8101 C.2     
   5 N5             1.1079     1.5467    -1.0279 N.pl3   
   6 C6            -1.3180     2.0455    -0.5145 C.2     
   7 O7            -1.2885     3.1465    -1.0305 O.2     
   8 N8            -2.4592     1.5920     0.0410 N.am    
   9 C9             1.4497    -3.8859     1.3688 C.ar    
  10 C10            0.9277    -2.6724     0.9712 C.ar    
  11 C11            1.7534    -1.7666     0.2991 C.ar    
  12 C12            3.0805    -2.1353     0.0590 C.ar    
  13 C13            3.5209    -3.3688     0.4909 C.ar    
  14 N14            2.7084    -4.1951     1.1224 N.ar    
  15 C15            0.5721    -4.8690     2.0998 C.3     
  16 C16           -3.5764     2.4317     0.1302 C.ar    
  17 C17           -4.8606     1.9010     0.0151 C.ar    
  18 C18           -5.9639     2.7392     0.1045 C.ar    
  19 C19           -5.7861     4.0969     0.3074 C.ar    
  20 C20           -4.5118     4.6216     0.4209 C.ar    
  21 C21           -3.4085     3.7928     0.3392 C.ar    
  22 F22           -7.2104     2.2301    -0.0069 F       
  23 N23           -5.0371     0.5268    -0.1907 N.3     
  24 C24           -5.8176    -0.0726     0.8993 C.3     
  25 C25           -5.8664    -1.5914     0.7182 C.3     
  26 C26           -6.5070    -1.9190    -0.6334 C.3     
  27 C27           -5.7030    -1.2432    -1.7476 C.3     
  28 C28           -5.6589     0.2655    -1.4951 C.3     
  29 C29           -6.5035    -3.4113    -0.8439 C.2     
  30 O30           -5.6091    -3.9325    -1.4758 O.2     
  31 C31          -10.1142    -6.2189     1.1749 C.3     
  32 N32           -9.9633    -7.2865     2.1826 N.3     
  33 C33           -9.1456    -6.3487     2.9762 C.3     
  34 C34           -8.7821    -5.6486     1.6656 C.3     
  35 C35           -7.5598    -6.2344     0.9653 C.3     
  36 C36           -7.4484    -5.6307    -0.4400 C.3     
  37 N37           -7.4943    -4.1666    -0.3299 N.am    
  38 C38           -8.6350    -3.5374     0.3488 C.3     
  39 C39           -8.7550    -4.1261     1.7597 C.3     
  40 H40            2.9857     0.4525    -1.1034 H       
  41 H41            1.3255     2.3778    -1.4783 H       
  42 H42           -2.5067     0.6840     0.3789 H       
  43 H43           -0.1037    -2.4260     1.1759 H       
  44 H44            3.7508    -1.4642    -0.4575 H       
  45 H45            4.5442    -3.6626     0.3097 H       
  46 H46            0.0786    -5.5212     1.3793 H       
  47 H47            1.1826    -5.4693     2.7745 H       
  48 H48           -0.1795    -4.3278     2.6745 H       
  49 H49           -6.6448     4.7482     0.3768 H       
  50 H50           -4.3783     5.6816     0.5788 H       
  51 H51           -2.4150     4.2059     0.4332 H       
  52 H52           -5.3490     0.1644     1.8544 H       
  53 H53           -6.8312     0.3279     0.8829 H       
  54 H54           -4.8541    -1.9942     0.7483 H       
  55 H55           -6.4589    -2.0344     1.5187 H       
  56 H56           -7.5327    -1.5504    -0.6493 H       
  57 H57           -4.6881    -1.6406    -1.7563 H       
  58 H58           -6.1788    -1.4376    -2.7089 H       
  59 H59           -6.6733     0.6644    -1.5002 H       
  60 H60           -5.0751     0.7480    -2.2789 H       
  61 H61          -10.0794    -6.5825     0.1480 H       
  62 H62          -10.9635    -5.5617     1.3618 H       
  63 H63          -10.8416    -7.4777     2.6411 H       
  64 H64           -9.7314    -5.7268     3.6531 H       
  65 H65           -8.2949    -6.8217     3.4667 H       
  66 H66           -6.6629    -5.9952     1.5367 H       
  67 H67           -7.6669    -7.3165     0.8895 H       
  68 H68           -6.5049    -5.9336    -0.8942 H       
  69 H69           -8.2798    -5.9773    -1.0537 H       
  70 H70           -8.4732    -2.4615     0.4142 H       
  71 H71           -9.5490    -3.7384    -0.2101 H       
  72 H72           -9.6756    -3.7734     2.2246 H       
  73 H73           -7.8999    -3.8133     2.3590 H       
@<TRIPOS>BOND
   1    1    2 2
   2    1    5 1
   3    1    6 1
   4    2    3 1
   5    3    4 2
   6    3   11 1
   7    4    5 1
   8    4   40 1
   9    5   41 1
  10    6    7 2
  11    6    8 am
  12    8   16 1
  13    8   42 1
  14    9   10 ar
  15    9   14 ar
  16    9   15 1
  17   10   11 ar
  18   10   43 1
  19   11   12 ar
  20   12   13 ar
  21   12   44 1
  22   13   14 ar
  23   13   45 1
  24   15   46 1
  25   15   47 1
  26   15   48 1
  27   16   17 ar
  28   16   21 ar
  29   17   18 ar
  30   17   23 1
  31   18   19 ar
  32   18   22 1
  33   19   20 ar
  34   19   49 1
  35   20   21 ar
  36   20   50 1
  37   21   51 1
  38   23   24 1
  39   23   28 1
  40   24   25 1
  41   24   52 1
  42   24   53 1
  43   25   26 1
  44   25   54 1
  45   25   55 1
  46   26   27 1
  47   26   29 1
  48   26   56 1
  49   27   28 1
  50   27   57 1
  51   27   58 1
  52   28   59 1
  53   28   60 1
  54   29   30 2
  55   29   37 am
  56   31   32 1
  57   31   34 1
  58   31   61 1
  59   31   62 1
  60   32   33 1
  61   32   63 1
  62   33   34 1
  63   33   64 1
  64   33   65 1
  65   34   35 1
  66   34   39 1
  67   35   36 1
  68   35   66 1
  69   35   67 1
  70   36   37 1
  71   36   68 1
  72   36   69 1
  73   37   38 1
  74   38   39 1
  75   38   70 1
  76   38   71 1
  77   39   72 1
  78   39   73 1

#	End of record

