#	Name: ASD00170385
#	Creating user name:	WinNT
#	Creation time:	15. 06. 2019 18:32

#	Modifying user name:	WinNT
#	Modification time:	15. 06. 2019 18:32

#	Program:	/corina/corina34_cracker 3.40 0067  02.08.2006

@<TRIPOS>MOLECULE
ASD00170385
  24   26    0    0    0
SMALL
NO_CHARGES


@<TRIPOS>ATOM
   1 C1            -0.0164     1.3569     0.0095 C.2     
   2 C2             0.0021    -0.0041     0.0020 C.2     
   3 S3            -1.6500    -0.5926    -0.0113 S.3     
   4 C4            -2.2442     1.0653     0.0088 C.2     
   5 N5            -1.2399     1.8847     0.0186 N.2     
   6 N6            -3.5790     1.4364     0.0130 N.pl3   
   7 C7             1.2819     2.0964     0.0011 C.ar    
   8 C8             2.4357     1.3901    -0.3349 C.ar    
   9 C9             2.3710    -0.0588    -0.7334 C.3     
  10 C10            1.2752    -0.8107     0.0195 C.3     
  11 C11            1.3401     3.4450     0.3221 C.ar    
  12 C12            2.5629     4.0898     0.3264 C.ar    
  13 C13            3.7133     3.3871     0.0147 C.ar    
  14 C14            3.6531     2.0455    -0.3137 C.ar    
  15 H15           -4.2712     0.7570     0.0045 H       
  16 H16           -3.8212     2.3756     0.0244 H       
  17 H17            2.1743    -0.1236    -1.8035 H       
  18 H18            3.3320    -0.5277    -0.5222 H       
  19 H19            1.5887    -0.9713     1.0511 H       
  20 H20            1.1010    -1.7739    -0.4601 H       
  21 H21            0.4380     3.9863     0.5660 H       
  22 H22            2.6201     5.1398     0.5724 H       
  23 H23            4.6680     3.8919     0.0277 H       
  24 H24            4.5587     1.5082    -0.5538 H       
@<TRIPOS>BOND
   1    1    2 2
   2    1    7 1
   3    1    5 1
   4    2    3 1
   5    2   10 1
   6    3    4 1
   7    4    5 2
   8    4    6 1
   9    6   15 1
  10    6   16 1
  11    7    8 ar
  12    7   11 ar
  13    8    9 1
  14    8   14 ar
  15    9   10 1
  16    9   17 1
  17    9   18 1
  18   10   19 1
  19   10   20 1
  20   11   12 ar
  21   11   21 1
  22   12   13 ar
  23   12   22 1
  24   13   14 ar
  25   13   23 1
  26   14   24 1

#	End of record

