#	Name: ASD09740671
#	Creating user name:	WinNT
#	Creation time:	15. 06. 2019 21:23

#	Modifying user name:	WinNT
#	Modification time:	15. 06. 2019 21:23

#	Program:	/corina/corina34_cracker 3.40 0067  02.08.2006

@<TRIPOS>MOLECULE
ASD09740671
  52   55    0    0    0
SMALL
NO_CHARGES


@<TRIPOS>ATOM
   1 C1            -0.2254     1.3235    -0.0464 C.2     
   2 N2             0.0021    -0.0041     0.0020 N.am    
   3 O3             0.7151     2.1054    -0.0479 O.co2   
   4 O4            -1.3722     1.7461    -0.0939 O.co2   
   5 C5            -1.1214    -0.9356     0.1297 C.3     
   6 C6            -1.7949    -0.7765     1.5094 C.3     
   7 C7            -2.9113     0.2481     1.2155 C.3     
   8 C8            -3.2259     0.0793    -0.2553 C.ar    
   9 C9            -4.3362     0.4930    -0.9979 C.ar    
  10 C10           -4.4012     0.2178    -2.3636 C.ar    
  11 C11           -3.3681    -0.4621    -2.9753 C.ar    
  12 C12           -2.2731    -0.8692    -2.2367 C.ar    
  13 C13           -2.1997    -0.5995    -0.8785 C.ar    
  14 S14           -6.2637     0.7283     1.1420 S.3     
  15 C15           -7.2897     2.1567     1.0413 C.2     
  16 N16           -6.9630     2.8466    -0.0153 N.2     
  17 C17           -5.9926     2.3783    -0.7596 C.2     
  18 C18           -5.4396     1.2204    -0.3363 C.2     
  19 C19           -8.3532     2.5158     2.0025 C.ar    
  20 C20           -9.1002     3.6766     1.8145 C.ar    
  21 C21          -10.1020     4.0087     2.7250 C.ar    
  22 C22          -10.3503     3.1742     3.8214 C.ar    
  23 C23           -9.6030     2.0235     4.0003 C.ar    
  24 C24           -8.6145     1.6886     3.0979 C.ar    
  25 F25          -11.3205     3.4930     4.7059 F       
  26 C26          -10.8745     5.2002     2.5399 C.1     
  27 N27          -11.4873     6.1453     2.3930 N.1     
  28 C28            1.3728    -0.5156    -0.0730 C.3     
  29 C29            2.3404     0.6490    -0.2932 C.3     
  30 C30            1.7230    -1.2296     1.2340 C.3     
  31 C31            1.4866    -1.5004    -1.2384 C.3     
  32 H32           -0.7806    -1.9616    -0.0087 H       
  33 H33           -2.2167    -1.7234     1.8463 H       
  34 H34           -1.0901    -0.3824     2.2416 H       
  35 H35           -3.7929     0.0302     1.8184 H       
  36 H36           -2.5577     1.2600     1.4131 H       
  37 H37           -5.2573     0.5355    -2.9403 H       
  38 H38           -3.4154    -0.6768    -4.0326 H       
  39 H39           -1.4681    -1.4017    -2.7214 H       
  40 H40           -5.6567     2.8840    -1.6528 H       
  41 H41           -8.9038     4.3166     0.9671 H       
  42 H42           -9.7973     1.3825     4.8475 H       
  43 H43           -8.0381     0.7865     3.2409 H       
  44 H44            2.2594     1.3506     0.5371 H       
  45 H45            3.3603     0.2684    -0.3490 H       
  46 H46            2.0909     1.1576    -1.2243 H       
  47 H47            1.0337    -2.0592     1.3909 H       
  48 H48            2.7429    -1.6102     1.1782 H       
  49 H49            1.6420    -0.5280     2.0643 H       
  50 H50            1.2371    -0.9918    -2.1696 H       
  51 H51            2.5064    -1.8810    -1.2943 H       
  52 H52            0.7972    -2.3301    -1.0816 H       
@<TRIPOS>BOND
   1    1    2 am
   2    1    3 ar
   3    1    4 ar
   4    2   28 1
   5    2    5 1
   6    5    6 1
   7    5   13 1
   8    5   32 1
   9    6    7 1
  10    6   33 1
  11    6   34 1
  12    7    8 1
  13    7   35 1
  14    7   36 1
  15    8    9 ar
  16    8   13 ar
  17    9   10 ar
  18    9   18 1
  19   10   11 ar
  20   10   37 1
  21   11   12 ar
  22   11   38 1
  23   12   13 ar
  24   12   39 1
  25   14   15 1
  26   14   18 1
  27   15   16 2
  28   15   19 1
  29   16   17 1
  30   17   18 2
  31   17   40 1
  32   19   20 ar
  33   19   24 ar
  34   20   21 ar
  35   20   41 1
  36   21   22 ar
  37   21   26 1
  38   22   23 ar
  39   22   25 1
  40   23   24 ar
  41   23   42 1
  42   24   43 1
  43   26   27 3
  44   28   29 1
  45   28   31 1
  46   28   30 1
  47   29   44 1
  48   29   45 1
  49   29   46 1
  50   30   47 1
  51   30   48 1
  52   30   49 1
  53   31   50 1
  54   31   51 1
  55   31   52 1

#	End of record

