#	Name: ASD01890388
#	Creating user name:	WinNT
#	Creation time:	15. 06. 2019 19:50

#	Modifying user name:	WinNT
#	Modification time:	15. 06. 2019 19:50

#	Program:	/corina/corina34_cracker 3.40 0067  02.08.2006

@<TRIPOS>MOLECULE
ASD01890388
  34   36    0    0    0
SMALL
NO_CHARGES


@<TRIPOS>ATOM
   1 C1            -0.0184     1.5028     0.0103 C.2     
   2 C2             0.0021    -0.0041     0.0020 C.3     
   3 C3             1.4513    -0.4944    -0.0145 C.3     
   4 O4             1.0197     2.1211     0.0037 O.2     
   5 O5            -1.1898     2.1580     0.0194 O.3     
   6 C6            -0.6897    -0.5226     1.2364 C.ar    
   7 C7            -1.8039    -1.3319     1.1155 C.ar    
   8 C8            -2.4388    -1.8078     2.2472 C.ar    
   9 C9            -1.9589    -1.4741     3.5012 C.ar    
  10 C10           -0.8438    -0.6641     3.6215 C.ar    
  11 C11           -0.2064    -0.1935     2.4890 C.ar    
  12 Cl12          -2.7561    -2.0710     4.9231 Cl      
  13 C13            2.1073    -0.0797    -1.3063 C.2     
  14 N14            1.6537    -0.3548    -2.4943 N.2     
  15 C15            2.4847     0.1677    -3.4326 C.ar    
  16 C16            3.5266     0.8117    -2.7439 C.ar    
  17 N17            3.2566     0.6418    -1.3999 N.pl3   
  18 C18            2.4779     0.1718    -4.8298 C.ar    
  19 C19            3.4899     0.8053    -5.5164 C.ar    
  20 C20            4.5170     1.4400    -4.8307 C.ar    
  21 C21            4.5378     1.4453    -3.4523 C.ar    
  22 Cl22           3.4816     0.8097    -7.2524 Cl      
  23 H23           -0.5153    -0.3696    -0.8850 H       
  24 H24            1.9924    -0.0570     0.8246 H       
  25 H25            1.4682    -1.5810     0.0691 H       
  26 H26           -1.1523     3.1243     0.0245 H       
  27 H27           -2.1786    -1.5921     0.1366 H       
  28 H28           -3.3095    -2.4398     2.1527 H       
  29 H29           -0.4687    -0.4033     4.6002 H       
  30 H30            0.6667     0.4352     2.5828 H       
  31 H31            3.7889     0.9739    -0.6601 H       
  32 H32            1.6823    -0.3204    -5.3693 H       
  33 H33            5.3048     1.9329    -5.3809 H       
  34 H34            5.3394     1.9410    -2.9249 H       
@<TRIPOS>BOND
   1    1    2 1
   2    1    4 2
   3    1    5 1
   4    2    3 1
   5    2    6 1
   6    2   23 1
   7    3   13 1
   8    3   24 1
   9    3   25 1
  10    5   26 1
  11    6    7 ar
  12    6   11 ar
  13    7    8 ar
  14    7   27 1
  15    8    9 ar
  16    8   28 1
  17    9   10 ar
  18    9   12 1
  19   10   11 ar
  20   10   29 1
  21   11   30 1
  22   13   14 2
  23   13   17 1
  24   14   15 1
  25   15   16 ar
  26   15   18 ar
  27   16   17 1
  28   16   21 ar
  29   17   31 1
  30   18   19 ar
  31   18   32 1
  32   19   20 ar
  33   19   22 1
  34   20   21 ar
  35   20   33 1
  36   21   34 1

#	End of record

