#	Name: ASD03731059
#	Creating user name:	WinNT
#	Creation time:	15. 06. 2019 20:45

#	Modifying user name:	WinNT
#	Modification time:	15. 06. 2019 20:45

#	Program:	/corina/corina34_cracker 3.40 0067  02.08.2006

@<TRIPOS>MOLECULE
ASD03731059
  64   70    0    0    0
SMALL
NO_CHARGES


@<TRIPOS>ATOM
   1 O1            -3.1453     2.1221    -1.0162 O.3     
   2 C2            -3.7085     0.8121    -1.2158 C.3     
   3 O3            -2.6213     0.0536    -1.7772 O.3     
   4 C4            -1.4828     0.6483    -1.3134 C.ar    
   5 C5            -1.8054     1.9205    -0.8466 C.ar    
   6 C6            -0.1760     0.1991    -1.2501 C.ar    
   7 C7             0.8239     1.0111    -0.7234 C.ar    
   8 C8             0.4910     2.2831    -0.2679 C.ar    
   9 C9            -0.8122     2.7316    -0.3239 C.ar    
  10 O10            2.1536     0.7587    -0.5556 O.3     
  11 C11            1.7708     2.9168     0.2079 C.3     
  12 C12            2.8554     2.0047    -0.3814 C.3     
  13 N13            2.0504     5.0960     0.8381 N.am    
  14 C14            1.9135     4.3345    -0.2658 C.2     
  15 C15            1.8509     2.9873     1.7040 C.ar    
  16 C16            1.7910     2.0438     2.7053 C.ar    
  17 C17            1.8997     2.4306     4.0292 C.ar    
  18 C18            2.0684     3.7667     4.3441 C.ar    
  19 C19            2.1281     4.7156     3.3449 C.ar    
  20 C20            2.0200     4.3353     2.0094 C.ar    
  21 O21            1.9072     4.7191    -1.4160 O.2     
  22 C22            2.2129     6.5517     0.8124 C.3     
  23 C23            0.8376     7.2196     0.8705 C.3     
  24 C24            1.0074     8.7399     0.8437 C.3     
  25 C25           -0.3680     9.4077     0.9018 C.3     
  26 C26           -1.0190     9.1026     2.2262 C.ar    
  27 C27           -0.3359     9.3444     3.4036 C.ar    
  28 C28           -0.9321     9.0654     4.6188 C.ar    
  29 C29           -2.2140     8.5435     4.6567 C.ar    
  30 C30           -2.8972     8.3018     3.4769 C.ar    
  31 C31           -2.3009     8.5865     2.2631 C.ar    
  32 F32           -2.7977     8.2700     5.8441 F       
  33 C33           -0.2091    10.8988     0.7519 C.ar    
  34 C34           -0.9570    11.5820    -0.1889 C.ar    
  35 C35           -0.8125    12.9494    -0.3270 C.ar    
  36 C36            0.0819    13.6352     0.4773 C.ar    
  37 C37            0.8305    12.9499     1.4192 C.ar    
  38 C38            0.6804    11.5833     1.5591 C.ar    
  39 F39            0.2243    14.9720     0.3429 F       
  40 H40           -4.0246     0.3823    -0.2653 H       
  41 H41           -4.5446     0.8571    -1.9138 H       
  42 H42            0.0698    -0.7885    -1.6115 H       
  43 H43           -1.0586     3.7180     0.0404 H       
  44 H44            3.6843     1.8879     0.3168 H       
  45 H45            3.2059     2.3889    -1.3393 H       
  46 H46            1.6587     1.0011     2.4570 H       
  47 H47            1.8524     1.6911     4.8148 H       
  48 H48            2.1535     4.0686     5.3775 H       
  49 H49            2.2592     5.7571     3.5989 H       
  50 H50            2.8061     6.8663     1.6710 H       
  51 H51            2.7204     6.8445    -0.1067 H       
  52 H52            0.2444     6.9050     0.0119 H       
  53 H53            0.3301     6.9268     1.7897 H       
  54 H54            1.6006     9.0545     1.7023 H       
  55 H55            1.5149     9.0326    -0.0755 H       
  56 H56           -0.9918     9.0258     0.0937 H       
  57 H57            0.6641     9.7511     3.3737 H       
  58 H58           -0.3982     9.2540     5.5384 H       
  59 H59           -3.8971     7.8947     3.5053 H       
  60 H60           -2.8352     8.4019     1.3428 H       
  61 H61           -1.6543    11.0468    -0.8163 H       
  62 H62           -1.3967    13.4829    -1.0622 H       
  63 H63            1.5284    13.4838     2.0471 H       
  64 H64            1.2612    11.0491     2.2964 H       
@<TRIPOS>BOND
   1    1    2 1
   2    1    5 1
   3    2    3 1
   4    2   40 1
   5    2   41 1
   6    3    4 1
   7    4    5 ar
   8    4    6 ar
   9    5    9 ar
  10    6    7 ar
  11    6   42 1
  12    7    8 ar
  13    7   10 1
  14    8    9 ar
  15    8   11 1
  16    9   43 1
  17   10   12 1
  18   11   12 1
  19   11   14 1
  20   11   15 1
  21   12   44 1
  22   12   45 1
  23   13   14 am
  24   13   20 1
  25   13   22 1
  26   14   21 2
  27   15   16 ar
  28   15   20 ar
  29   16   17 ar
  30   16   46 1
  31   17   18 ar
  32   17   47 1
  33   18   19 ar
  34   18   48 1
  35   19   20 ar
  36   19   49 1
  37   22   23 1
  38   22   50 1
  39   22   51 1
  40   23   24 1
  41   23   52 1
  42   23   53 1
  43   24   25 1
  44   24   54 1
  45   24   55 1
  46   25   26 1
  47   25   33 1
  48   25   56 1
  49   26   27 ar
  50   26   31 ar
  51   27   28 ar
  52   27   57 1
  53   28   29 ar
  54   28   58 1
  55   29   30 ar
  56   29   32 1
  57   30   31 ar
  58   30   59 1
  59   31   60 1
  60   33   34 ar
  61   33   38 ar
  62   34   35 ar
  63   34   61 1
  64   35   36 ar
  65   35   62 1
  66   36   37 ar
  67   36   39 1
  68   37   38 ar
  69   37   63 1
  70   38   64 1

#	End of record

