#	Name: ASD01811244
#	Creating user name:	WinNT
#	Creation time:	15. 06. 2019 19:26

#	Modifying user name:	WinNT
#	Modification time:	15. 06. 2019 19:26

#	Program:	/corina/corina34_cracker 3.40 0067  02.08.2006

@<TRIPOS>MOLECULE
ASD01811244
  62   67    0    0    0
SMALL
NO_CHARGES


@<TRIPOS>ATOM
   1 C1             1.2183    -0.5222     0.8091 C.3     
   2 C2             0.0021    -0.0041     0.0020 C.3     
   3 C3             0.2351    -0.5463    -1.4233 C.3     
   4 C4             1.7475    -0.7972    -1.5563 C.3     
   5 C5             2.3806    -0.3987    -0.2072 C.3     
   6 N6            -1.2487    -0.5383     0.5572 N.3     
   7 C7            -2.4230     0.0089    -0.1585 C.3     
   8 C8            -3.5532     0.1634     0.8801 C.3     
   9 C9            -2.9274    -0.2771     2.2095 C.3     
  10 C10           -1.4135    -0.1390     1.9806 C.3     
  11 C11           -3.3962     0.5664     3.3579 C.ar    
  12 C12           -3.9808    -0.3180     4.2614 C.ar    
  13 N13           -3.9126    -1.6244     3.7716 N.am    
  14 C14           -3.3079    -1.6849     2.5685 C.2     
  15 C15           -3.3473     1.9150     3.6296 C.ar    
  16 C16           -3.8817     2.4044     4.8086 C.ar    
  17 C17           -4.4647     1.5358     5.7126 C.ar    
  18 C18           -4.5160     0.1833     5.4450 C.ar    
  19 O19           -3.1095    -2.6811     1.9058 O.2     
  20 C20           -4.4376    -2.7927     4.4826 C.3     
  21 C21           -5.8736    -3.0191     4.0853 C.ar    
  22 C22           -6.1670    -3.6562     2.8906 C.ar    
  23 C23           -7.4825    -3.8659     2.5212 C.ar    
  24 C24           -8.5135    -3.4359     3.3527 C.ar    
  25 C25           -8.2126    -2.7955     4.5545 C.ar    
  26 C26           -6.8935    -2.5953     4.9170 C.ar    
  27 F27           -5.1657    -4.0729     2.0849 F       
  28 F28           -9.2083    -2.3755     5.3654 F       
  29 C29           -9.9284    -3.6581     2.9608 C.2     
  30 C30          -10.9034    -4.2097     3.7394 C.2     
  31 N31          -12.0404    -4.2323     3.0144 N.pl3   
  32 N32          -11.7677    -3.6825     1.7560 N.2     
  33 C33          -10.5093    -3.3320     1.7199 C.2     
  34 C34          -13.3368    -4.7439     3.4657 C.3     
  35 H35            1.3993     0.1062     1.6812 H       
  36 H36            1.0718    -1.5612     1.1041 H       
  37 H37           -0.0163     1.0858    -0.0027 H       
  38 H38           -0.3117    -1.4789    -1.5620 H       
  39 H39           -0.0875     0.1894    -2.1600 H       
  40 H40            1.9345    -1.8517    -1.7596 H       
  41 H41            2.1588    -0.1834    -2.3576 H       
  42 H42            2.7463     0.6274    -0.2457 H       
  43 H43            3.1884    -1.0831     0.0521 H       
  44 H44           -2.1772     0.9805    -0.5872 H       
  45 H45           -2.7327    -0.6795    -0.9448 H       
  46 H46           -3.8753     1.2031     0.9385 H       
  47 H47           -4.3940    -0.4814     0.6245 H       
  48 H48           -0.8620    -0.8132     2.6359 H       
  49 H49           -1.0940     0.8923     2.1306 H       
  50 H50           -2.8912     2.5917     2.9222 H       
  51 H51           -3.8438     3.4625     5.0219 H       
  52 H52           -4.8816     1.9178     6.6328 H       
  53 H53           -4.9729    -0.4890     6.1562 H       
  54 H54           -3.8463    -3.6712     4.2243 H       
  55 H55           -4.3809    -2.6198     5.5573 H       
  56 H56           -7.7102    -4.3620     1.5893 H       
  57 H57           -6.6594    -2.0995     5.8474 H       
  58 H58          -10.7860    -4.5641     4.7529 H       
  59 H59          -10.0014    -2.8779     0.8819 H       
  60 H60          -13.9031    -3.9377     3.9322 H       
  61 H61          -13.8922    -5.1308     2.6113 H       
  62 H62          -13.1799    -5.5437     4.1894 H       
@<TRIPOS>BOND
   1    1    2 1
   2    1    5 1
   3    1   35 1
   4    1   36 1
   5    2    3 1
   6    2    6 1
   7    2   37 1
   8    3    4 1
   9    3   38 1
  10    3   39 1
  11    4    5 1
  12    4   40 1
  13    4   41 1
  14    5   42 1
  15    5   43 1
  16    6    7 1
  17    6   10 1
  18    7    8 1
  19    7   44 1
  20    7   45 1
  21    8    9 1
  22    8   46 1
  23    8   47 1
  24    9   10 1
  25    9   11 1
  26    9   14 1
  27   10   48 1
  28   10   49 1
  29   11   12 ar
  30   11   15 ar
  31   12   13 1
  32   12   18 ar
  33   13   14 am
  34   13   20 1
  35   14   19 2
  36   15   16 ar
  37   15   50 1
  38   16   17 ar
  39   16   51 1
  40   17   18 ar
  41   17   52 1
  42   18   53 1
  43   20   21 1
  44   20   54 1
  45   20   55 1
  46   21   22 ar
  47   21   26 ar
  48   22   23 ar
  49   22   27 1
  50   23   24 ar
  51   23   56 1
  52   24   25 ar
  53   24   29 1
  54   25   26 ar
  55   25   28 1
  56   26   57 1
  57   29   30 2
  58   29   33 1
  59   30   31 1
  60   30   58 1
  61   31   32 1
  62   31   34 1
  63   32   33 2
  64   33   59 1
  65   34   60 1
  66   34   61 1
  67   34   62 1

#	End of record

