#	Name: ASD08170283
#	Creating user name:	WinNT
#	Creation time:	15. 06. 2019 21:17

#	Modifying user name:	WinNT
#	Modification time:	15. 06. 2019 21:17

#	Program:	/corina/corina34_cracker 3.40 0067  02.08.2006

@<TRIPOS>MOLECULE
ASD08170283
  99  102    0    0    0
SMALL
NO_CHARGES


@<TRIPOS>ATOM
   1 C1            -0.1937     3.0489    -1.7650 C.2     
   2 N2            -0.6599     1.8602    -2.1964 N.am    
   3 C3             0.1770     0.7496    -2.2132 C.2     
   4 S4            -0.2618    -0.8236    -2.7300 S.3     
   5 C5             1.3736    -1.3769    -2.3684 C.2     
   6 C6             1.8987    -2.7777    -2.5506 C.3     
   7 C7             1.9711    -5.8035    -0.1704 C.3     
   8 C8             2.4962    -7.2042    -0.3526 C.2     
   9 S9             1.5858    -8.5851    -0.9656 S.3     
  10 C10            2.9806    -9.5623    -0.7805 C.2     
  11 N11            1.4225     0.7345    -1.8449 N.2     
  12 N12            2.0421    -0.3630    -1.9183 N.2     
  13 N13            3.6987    -7.6092    -0.0924 N.2     
  14 N14            3.9433    -8.8286    -0.3093 N.2     
  15 O15            0.9255     3.1305    -1.3048 O.2     
  16 C16           -1.0606     4.2779    -1.8603 C.3     
  17 C17            1.6684    -3.5795    -1.2680 C.3     
  18 C18            2.2015    -5.0017    -1.4530 C.3     
  19 C19           -2.2622     4.1281    -0.9251 C.3     
  20 C20           -1.7916     4.1144     0.5398 C.3     
  21 C21           -3.2027     5.3417    -1.0746 C.3     
  22 C22           -3.7147     5.6049     0.3634 C.3     
  23 C23           -2.4625     5.3203     1.2295 C.3     
  24 N24            3.0676   -10.9167    -1.0839 N.am    
  25 C25            4.2269   -11.5770    -0.8930 C.2     
  26 C26            4.3532   -13.0168    -1.3197 C.3     
  27 O27            5.1686   -11.0124    -0.3778 O.2     
  28 C28            5.8057   -13.3105    -1.7002 C.3     
  29 C29            3.9339   -13.9294    -0.1654 C.3     
  30 C30            5.9051   -14.7042    -2.2647 C.2     
  31 O31            7.0886   -15.1731    -2.6904 O.3     
  32 O32            4.9195   -15.3997    -2.3341 O.2     
  33 C33            7.1099   -16.5240    -3.2221 C.3     
  34 C34            6.1746   -16.6115    -4.4298 C.3     
  35 C35            8.5340   -16.8802    -3.6531 C.3     
  36 C36            6.6433   -17.5039    -2.1437 C.3     
  37 C37            4.7740   -13.6172     1.0853 C.3     
  38 C38            3.7842   -13.1693     2.1806 C.3     
  39 C39            2.4357   -13.8019     1.7556 C.3     
  40 C40            2.4628   -13.6604     0.2134 C.3     
  41 N41           -0.2822     5.4561    -1.4703 N.am    
  42 C42           -0.4862     6.6345    -2.0916 C.2     
  43 O43            0.3050     7.6878    -1.8140 O.3     
  44 O44           -1.3843     6.7463    -2.9025 O.2     
  45 C45            0.0273     8.9254    -2.5208 C.3     
  46 C46           -1.3967     9.3858    -2.2028 C.3     
  47 C47            1.0218    10.0002    -2.0774 C.3     
  48 C48            0.1641     8.6942    -4.0270 C.3     
  49 H49           -1.5792     1.7793    -2.4952 H       
  50 H50            1.3753    -3.2572    -3.3778 H       
  51 H51            2.9660    -2.7401    -2.7689 H       
  52 H52            0.9039    -5.8410     0.0479 H       
  53 H53            2.4945    -5.3240     0.6568 H       
  54 H54           -1.4108     4.3969    -2.8856 H       
  55 H55            2.1918    -3.1000    -0.4409 H       
  56 H56            0.6011    -3.6171    -1.0498 H       
  57 H57            3.2687    -4.9641    -1.6713 H       
  58 H58            1.6781    -5.4812    -2.2802 H       
  59 H59           -2.8000     3.2078    -1.1531 H       
  60 H60           -2.1017     3.1879     1.0230 H       
  61 H61           -0.7071     4.2145     0.5845 H       
  62 H62           -2.6537     6.2061    -1.4482 H       
  63 H63           -4.0339     5.1009    -1.7373 H       
  64 H64           -4.0349     6.6407     0.4759 H       
  65 H65           -4.5235     4.9197     0.6169 H       
  66 H66           -2.7534     5.0638     2.2481 H       
  67 H67           -1.7939     6.1811     1.2279 H       
  68 H68            2.2938   -11.3862    -1.4329 H       
  69 H69            3.7084   -13.1988    -2.1794 H       
  70 H70            6.1378   -12.5909    -2.4485 H       
  71 H71            6.4364   -13.2312    -0.8148 H       
  72 H72            4.0619   -14.9738    -0.4501 H       
  73 H73            6.5070   -15.9134    -5.1981 H       
  74 H74            6.1905   -17.6257    -4.8290 H       
  75 H75            5.1600   -16.3578    -4.1227 H       
  76 H76            9.2003   -16.8178    -2.7927 H       
  77 H77            8.5500   -17.8943    -4.0523 H       
  78 H78            8.8664   -16.1820    -4.4214 H       
  79 H79            5.6287   -17.2502    -1.8366 H       
  80 H80            6.6592   -18.5181    -2.5428 H       
  81 H81            7.3096   -17.4416    -1.2833 H       
  82 H82            5.3091   -14.5102     1.4082 H       
  83 H83            5.4805   -12.8155     0.8700 H       
  84 H84            4.0942   -13.5500     3.1537 H       
  85 H85            3.7056   -12.0824     2.2024 H       
  86 H86            2.3927   -14.8514     2.0465 H       
  87 H87            1.5984   -13.2477     2.1797 H       
  88 H88            2.1709   -12.6527    -0.0824 H       
  89 H89            1.8085   -14.3994    -0.2490 H       
  90 H90            0.3801     5.3880    -0.7648 H       
  91 H91           -1.4942     9.5505    -1.1297 H       
  92 H92           -1.6052    10.3148    -2.7334 H       
  93 H93           -2.1052     8.6201    -2.5187 H       
  94 H94            2.0363     9.6722    -2.3040 H       
  95 H95            0.8133    10.9292    -2.6080 H       
  96 H96            0.9243    10.1649    -1.0043 H       
  97 H97           -0.5444     7.9285    -4.3429 H       
  98 H98           -0.0444     9.6232    -4.5577 H       
  99 H99            1.1786     8.3662    -4.2536 H       
@<TRIPOS>BOND
   1    1    2 am
   2    1   15 2
   3    1   16 1
   4    2    3 1
   5    2   49 1
   6    3    4 1
   7    3   11 2
   8    4    5 1
   9    5    6 1
  10    5   12 2
  11    6   17 1
  12    6   50 1
  13    6   51 1
  14    7    8 1
  15    7   18 1
  16    7   52 1
  17    7   53 1
  18    8    9 1
  19    8   13 2
  20    9   10 1
  21   10   24 1
  22   10   14 2
  23   11   12 1
  24   13   14 1
  25   16   19 1
  26   16   41 1
  27   16   54 1
  28   17   18 1
  29   17   55 1
  30   17   56 1
  31   18   57 1
  32   18   58 1
  33   19   20 1
  34   19   21 1
  35   19   59 1
  36   20   23 1
  37   20   60 1
  38   20   61 1
  39   21   22 1
  40   21   62 1
  41   21   63 1
  42   22   23 1
  43   22   64 1
  44   22   65 1
  45   23   66 1
  46   23   67 1
  47   24   25 am
  48   24   68 1
  49   25   26 1
  50   25   27 2
  51   26   28 1
  52   26   29 1
  53   26   69 1
  54   28   30 1
  55   28   70 1
  56   28   71 1
  57   29   37 1
  58   29   40 1
  59   29   72 1
  60   30   31 1
  61   30   32 2
  62   31   33 1
  63   33   34 1
  64   33   35 1
  65   33   36 1
  66   34   73 1
  67   34   74 1
  68   34   75 1
  69   35   76 1
  70   35   77 1
  71   35   78 1
  72   36   79 1
  73   36   80 1
  74   36   81 1
  75   37   38 1
  76   37   82 1
  77   37   83 1
  78   38   39 1
  79   38   84 1
  80   38   85 1
  81   39   40 1
  82   39   86 1
  83   39   87 1
  84   40   88 1
  85   40   89 1
  86   41   42 am
  87   41   90 1
  88   42   43 1
  89   42   44 2
  90   43   45 1
  91   45   46 1
  92   45   47 1
  93   45   48 1
  94   46   91 1
  95   46   92 1
  96   46   93 1
  97   47   94 1
  98   47   95 1
  99   47   96 1
 100   48   97 1
 101   48   98 1
 102   48   99 1

#	End of record

