#	Name: ASD01209206
#	Creating user name:	WinNT
#	Creation time:	15. 06. 2019 19:11

#	Modifying user name:	WinNT
#	Modification time:	15. 06. 2019 19:11

#	Program:	/corina/corina34_cracker 3.40 0067  02.08.2006

@<TRIPOS>MOLECULE
ASD01209206
  56   58    0    0    0
SMALL
NO_CHARGES


@<TRIPOS>ATOM
   1 C1             1.3596    -0.3111    -0.3287 C.2     
   2 C2             0.0178     0.0035    -0.1861 C.2     
   3 C3            -1.1276    -0.8873    -0.4218 C.2     
   4 N4            -0.9221    -2.1894    -0.7022 N.am    
   5 O5            -2.2609    -0.4491    -0.3637 O.2     
   6 C6            -2.0030    -3.0533    -0.8201 C.2     
   7 P7            -3.2154    -6.7096    -3.2717 P.3     
   8 O8            -2.0943    -6.0079    -3.9360 O.2     
   9 C9            -3.1009    -6.4673    -1.4685 C.3     
  10 N10           -1.9163    -4.3192    -1.0864 N.2     
  11 S11           -3.6413    -2.6038    -0.6281 S.3     
  12 C12           -4.1446    -4.2616    -0.9477 C.2     
  13 C13           -3.0490    -4.9927    -1.1621 C.2     
  14 N14           -0.0268     1.3099     0.2191 N.pl3   
  15 N15            1.1681     1.7700     0.3208 N.2     
  16 C16            2.0506     0.8546     0.0081 C.2     
  17 C17            3.5476     1.0283     0.0115 C.3     
  18 F18            3.8690     2.2945     0.5121 F       
  19 F19            4.1292     0.0458     0.8200 F       
  20 F20            4.0343     0.9058    -1.2944 F       
  21 C21           -1.1965     2.0343     0.4825 C.ar    
  22 C22           -2.2160     1.4597     1.2305 C.ar    
  23 C23           -1.3349     3.3296     0.0007 C.ar    
  24 C24           -2.4876     4.0431     0.2611 C.ar    
  25 C25           -3.5079     3.4665     1.0040 C.ar    
  26 C26           -3.3682     2.1744     1.4902 C.ar    
  27 O27           -4.6425     4.1698     1.2604 O.3     
  28 C28           -5.6517     3.5146     2.0313 C.3     
  29 O29           -4.6128    -6.1142    -3.8055 O.3     
  30 C30           -6.3464    -5.4387    -5.3479 C.3     
  31 C31           -4.9561    -6.0580    -5.1915 C.3     
  32 O32           -3.1387    -8.2822    -3.6078 O.3     
  33 C33           -3.0278   -10.3197    -4.9028 C.3     
  34 C34           -3.0974    -8.7918    -4.9423 C.3     
  35 H35            1.7815    -1.2580    -0.6314 H       
  36 H36           -0.0192    -2.5232    -0.8216 H       
  37 H37           -3.9735    -6.9080    -0.9866 H       
  38 H38           -2.1973    -6.9482    -1.0940 H       
  39 H39           -5.1619    -4.6238    -0.9637 H       
  40 H40           -2.1075     0.4539     1.6087 H       
  41 H41           -0.5407     3.7786    -0.5772 H       
  42 H42           -2.5951     5.0504    -0.1132 H       
  43 H43           -4.1627     1.7262     2.0683 H       
  44 H44           -6.5012     4.1848     2.1624 H       
  45 H45           -5.9770     2.6128     1.5124 H       
  46 H46           -5.2467     3.2462     3.0070 H       
  47 H47           -6.3439    -4.4308    -4.9330 H       
  48 H48           -6.6083    -5.3958    -6.4051 H       
  49 H49           -7.0775    -6.0484    -4.8169 H       
  50 H50           -4.2250    -5.4483    -5.7225 H       
  51 H51           -4.9586    -7.0659    -5.6064 H       
  52 H52           -2.1299   -10.6288    -4.3678 H       
  53 H53           -3.9078   -10.7104    -4.3918 H       
  54 H54           -2.9963   -10.7083    -5.9207 H       
  55 H55           -3.9953    -8.4826    -5.4772 H       
  56 H56           -2.2174    -8.4011    -5.4532 H       
@<TRIPOS>BOND
   1    1    2 2
   2    1   16 1
   3    1   35 1
   4    2    3 1
   5    2   14 1
   6    3    4 am
   7    3    5 2
   8    4    6 1
   9    4   36 1
  10    6   10 2
  11    6   11 1
  12    7    8 2
  13    7   29 1
  14    7   32 1
  15    7    9 1
  16    9   13 1
  17    9   37 1
  18    9   38 1
  19   10   13 1
  20   11   12 1
  21   12   13 2
  22   12   39 1
  23   14   15 1
  24   14   21 1
  25   15   16 2
  26   16   17 1
  27   17   18 1
  28   17   19 1
  29   17   20 1
  30   21   22 ar
  31   21   23 ar
  32   22   26 ar
  33   22   40 1
  34   23   24 ar
  35   23   41 1
  36   24   25 ar
  37   24   42 1
  38   25   26 ar
  39   25   27 1
  40   26   43 1
  41   27   28 1
  42   28   44 1
  43   28   45 1
  44   28   46 1
  45   29   31 1
  46   30   31 1
  47   30   47 1
  48   30   48 1
  49   30   49 1
  50   31   50 1
  51   31   51 1
  52   32   34 1
  53   33   34 1
  54   33   52 1
  55   33   53 1
  56   33   54 1
  57   34   55 1
  58   34   56 1

#	End of record

