#	Name: ASD01816650
#	Creating user name:	WinNT
#	Creation time:	15. 06. 2019 19:35

#	Modifying user name:	WinNT
#	Modification time:	15. 06. 2019 19:35

#	Program:	/corina/corina34_cracker 3.40 0067  02.08.2006

@<TRIPOS>MOLECULE
ASD01816650
  51   55    0    0    0
SMALL
NO_CHARGES


@<TRIPOS>ATOM
   1 C1            -0.0167     1.3813     0.0096 C.ar    
   2 C2             0.0021    -0.0041     0.0020 C.ar    
   3 C3             1.1984    -0.6909    -0.0131 C.ar    
   4 C4             2.4015     0.0059    -0.0204 C.ar    
   5 C5             2.3790     1.4106    -0.0127 C.ar    
   6 C6             1.1663     2.0916     0.0022 C.ar    
   7 N7             3.6053    -0.6772    -0.0347 N.pl3   
   8 C8             4.7970    -0.0586    -0.0423 C.2     
   9 C9             4.9000     1.3103    -0.0359 C.2     
  10 C10            3.6670     2.1302    -0.0207 C.2     
  11 C11            5.9971     2.2730    -0.0413 C.2     
  12 N12            5.4245     3.4960    -0.0301 N.am    
  13 N13            4.0323     3.3799    -0.0180 N.2     
  14 O14            7.1914     2.0229    -0.0530 O.2     
  15 C15            6.1259     4.7074    -0.0310 C.ar    
  16 C16            3.5779    -2.1419    -0.0413 C.3     
  17 C17            3.5555    -2.6375    -1.4643 C.ar    
  18 C18            4.7425    -2.8870    -2.1276 C.ar    
  19 C19            4.7231    -3.3419    -3.4324 C.ar    
  20 C20            3.5142    -3.5479    -4.0753 C.ar    
  21 C21            2.3260    -3.2976    -3.4100 C.ar    
  22 C22            2.3478    -2.8478    -2.1035 C.ar    
  23 F23            3.4941    -3.9922    -5.3510 F       
  24 C24            5.8873     5.6504     0.9602 C.ar    
  25 C25            7.0664     4.9665    -1.0201 C.ar    
  26 C26            7.7569     6.1623    -1.0178 C.ar    
  27 C27            7.5134     7.1013    -0.0319 C.ar    
  28 C28            6.5815     6.8445     0.9568 C.ar    
  29 C29            4.8718     5.3713     2.0381 C.3     
  30 O30            5.1906     6.1360     3.2024 O.3     
  31 C31            3.4785     5.7592     1.5389 C.3     
  32 H32           -0.9602     1.9068     0.0170 H       
  33 H33           -0.9288    -0.5516     0.0083 H       
  34 H34            1.2004    -1.7709    -0.0189 H       
  35 H35            1.1506     3.1715     0.0084 H       
  36 H36            5.6983    -0.6536    -0.0534 H       
  37 H37            4.4656    -2.5242     0.4626 H       
  38 H38            2.6860    -2.4910     0.4791 H       
  39 H39            5.6853    -2.7260    -1.6260 H       
  40 H40            5.6505    -3.5364    -3.9505 H       
  41 H41            1.3825    -3.4579    -3.9105 H       
  42 H42            1.4211    -2.6525    -1.5843 H       
  43 H43            7.2574     4.2334    -1.7898 H       
  44 H44            8.4881     6.3643    -1.7864 H       
  45 H45            8.0554     8.0355    -0.0319 H       
  46 H46            6.3935     7.5799     1.7250 H       
  47 H47            4.8867     4.3098     2.2853 H       
  48 H48            5.1959     7.0919     3.0559 H       
  49 H49            3.2354     5.1759     0.6508 H       
  50 H50            2.7440     5.5573     2.3186 H       
  51 H51            3.4636     6.8207     1.2917 H       
@<TRIPOS>BOND
   1    1    2 ar
   2    1    6 ar
   3    1   32 1
   4    2    3 ar
   5    2   33 1
   6    3    4 ar
   7    3   34 1
   8    4    5 ar
   9    4    7 1
  10    5    6 ar
  11    5   10 1
  12    6   35 1
  13    7    8 1
  14    7   16 1
  15    8    9 2
  16    8   36 1
  17    9   10 1
  18    9   11 1
  19   10   13 2
  20   11   12 am
  21   11   14 2
  22   12   13 1
  23   12   15 1
  24   15   24 ar
  25   15   25 ar
  26   16   17 1
  27   16   37 1
  28   16   38 1
  29   17   18 ar
  30   17   22 ar
  31   18   19 ar
  32   18   39 1
  33   19   20 ar
  34   19   40 1
  35   20   21 ar
  36   20   23 1
  37   21   22 ar
  38   21   41 1
  39   22   42 1
  40   24   29 1
  41   24   28 ar
  42   25   26 ar
  43   25   43 1
  44   26   27 ar
  45   26   44 1
  46   27   28 ar
  47   27   45 1
  48   28   46 1
  49   29   30 1
  50   29   31 1
  51   29   47 1
  52   30   48 1
  53   31   49 1
  54   31   50 1
  55   31   51 1

#	End of record

