#	Name: ASD00450072
#	Creating user name:	WinNT
#	Creation time:	15. 06. 2019 18:36

#	Modifying user name:	WinNT
#	Modification time:	15. 06. 2019 18:36

#	Program:	/corina/corina34_cracker 3.40 0067  02.08.2006

@<TRIPOS>MOLECULE
ASD00450072
  49   51    0    0    0
SMALL
NO_CHARGES


@<TRIPOS>ATOM
   1 C1            -0.5522     1.8701     0.4281 C.ar    
   2 C2            -0.9287     0.5910     0.8651 C.ar    
   3 C3             0.0373    -0.2986     1.3026 C.ar    
   4 C4             1.3734     0.0694     1.3105 C.ar    
   5 C5             1.7571     1.3288     0.8821 C.ar    
   6 C6             0.8053     2.2349     0.4395 C.ar    
   7 C7            -1.5699     2.8203    -0.0442 C.2     
   8 O8            -2.1027     3.5813     0.7412 O.2     
   9 N9            -1.9127     2.8481    -1.3474 N.am    
  10 N10            1.1917     3.4981     0.0090 N.pl3   
  11 C11            2.1883     4.1974     0.6982 C.ar    
  12 C12            2.6622     5.4067     0.2007 C.ar    
  13 C13            2.7026     3.6886     1.8833 C.ar    
  14 C14            3.6866     4.3812     2.5617 C.ar    
  15 C15            4.1606     5.5810     2.0623 C.ar    
  16 C16            3.6474     6.0948     0.8849 C.ar    
  17 F17            2.3079    -0.8068     1.7396 F       
  18 F18            2.1611     5.9081    -0.9494 F       
  19 I19            5.6531     6.6265     3.0960 I       
  20 O20           -2.2357     0.2274     0.8593 O.3     
  21 C21           -2.5445    -1.0902     1.3180 C.3     
  22 C22           -4.0556    -1.3167     1.2388 C.3     
  23 N23           -4.7461    -0.4136     2.1711 N.am    
  24 C24           -5.6331     0.4752     1.3987 C.3     
  25 C25           -5.9276    -0.2987     0.0894 C.3     
  26 C26           -4.5624    -0.9848    -0.1806 C.3     
  27 S27           -4.5591    -0.3979     3.8164 S.o2    
  28 O28           -5.7422     0.1815     4.3492 O.2     
  29 O29           -4.0952    -1.6910     4.1799 O.2     
  30 N30           -3.3274     0.6544     4.1598 N.am    
  31 H31           -0.2514    -1.2832     1.6395 H       
  32 H32            2.8009     1.6062     0.8924 H       
  33 H33           -1.4879     2.2412    -1.9737 H       
  34 H34           -2.5842     3.4749    -1.6590 H       
  35 H35            0.7705     3.8951    -0.7694 H       
  36 H36            2.3332     2.7522     2.2747 H       
  37 H37            4.0862     3.9855     3.4838 H       
  38 H38            4.0163     7.0340     0.4999 H       
  39 H39           -2.0342    -1.8220     0.6917 H       
  40 H40           -2.2140    -1.2023     2.3506 H       
  41 H41           -4.2885    -2.3526     1.4853 H       
  42 H42           -6.5572     0.6587     1.9469 H       
  43 H43           -5.1288     1.4160     1.1780 H       
  44 H44           -6.7134    -1.0386     0.2413 H       
  45 H45           -6.1877     0.3851    -0.7185 H       
  46 H46           -3.8795    -0.3002    -0.6836 H       
  47 H47           -4.6971    -1.8952    -0.7646 H       
  48 H48           -2.8724     1.1197     3.4406 H       
  49 H49           -3.0610     0.8054     5.0802 H       
@<TRIPOS>BOND
   1    1    2 ar
   2    1    6 ar
   3    1    7 1
   4    2    3 ar
   5    2   20 1
   6    3    4 ar
   7    3   31 1
   8    4    5 ar
   9    4   17 1
  10    5    6 ar
  11    5   32 1
  12    6   10 1
  13    7    8 2
  14    7    9 am
  15    9   33 1
  16    9   34 1
  17   10   11 1
  18   10   35 1
  19   11   13 ar
  20   11   12 ar
  21   12   16 ar
  22   12   18 1
  23   13   14 ar
  24   13   36 1
  25   14   15 ar
  26   14   37 1
  27   15   16 ar
  28   15   19 1
  29   16   38 1
  30   20   21 1
  31   21   22 1
  32   21   39 1
  33   21   40 1
  34   22   23 1
  35   22   26 1
  36   22   41 1
  37   23   24 1
  38   23   27 am
  39   24   25 1
  40   24   42 1
  41   24   43 1
  42   25   26 1
  43   25   44 1
  44   25   45 1
  45   26   46 1
  46   26   47 1
  47   27   28 2
  48   27   29 2
  49   27   30 am
  50   30   48 1
  51   30   49 1

#	End of record

