#	Name: ASD01884957
#	Creating user name:	WinNT
#	Creation time:	15. 06. 2019 19:49

#	Modifying user name:	WinNT
#	Modification time:	15. 06. 2019 19:49

#	Program:	/corina/corina34_cracker 3.40 0067  02.08.2006

@<TRIPOS>MOLECULE
ASD01884957
  50   53    0    0    0
SMALL
NO_CHARGES


@<TRIPOS>ATOM
   1 C1             0.0202     1.4018     0.1566 C.ar    
   2 C2             0.0682     0.0226     0.1544 C.ar    
   3 C3            -1.1098    -0.7142     0.0252 C.ar    
   4 C4            -2.3317    -0.0538    -0.1015 C.ar    
   5 C5            -2.3732     1.3249    -0.0987 C.ar    
   6 C6            -1.2013     2.0562     0.0357 C.ar    
   7 C7            -1.0626    -2.1947     0.0220 C.2     
   8 C8            -1.6557    -2.9127     1.0422 C.2     
   9 C9            -0.4134    -2.8869    -1.0313 C.2     
  10 C10           -0.3712    -4.2311    -1.0349 C.2     
  11 N11           -0.9505    -4.9524    -0.0272 N.pl3   
  12 C12           -1.5953    -4.3173     1.0124 C.2     
  13 C13           -2.3566    -2.2013     2.1708 C.3     
  14 C14           -1.0621    -6.2866     0.2275 C.2     
  15 N15           -1.7276    -6.4177     1.3505 N.2     
  16 N16           -2.0460    -5.2626     1.8190 N.2     
  17 O17           -0.5751    -7.2944    -0.5400 O.3     
  18 O18           -1.2462     3.4144     0.0381 O.3     
  19 C19           -1.0510     4.0612    -1.1409 C.ar    
  20 F20            1.1597     2.1168     0.2816 F       
  21 C21           -0.7394     3.3477    -2.2940 C.ar    
  22 C22           -0.5499     4.0514    -3.4726 C.ar    
  23 C23           -0.6755     5.4278    -3.4645 C.ar    
  24 N24           -0.9719     6.0742    -2.3539 N.ar    
  25 C25           -1.1652     5.4424    -1.2134 C.ar    
  26 C26           -0.8072    -8.6283    -0.0829 C.3     
  27 C27           -0.1896    -9.6205    -1.0704 C.3     
  28 C28           -0.4704     6.2004    -4.7421 C.3     
  29 C29           -1.5023     6.2289     0.0271 C.3     
  30 H30            1.0160    -0.4857     0.2523 H       
  31 H31           -3.2449    -0.6216    -0.2020 H       
  32 H32           -3.3195     1.8360    -0.1971 H       
  33 H33            0.0490    -2.3324    -1.8345 H       
  34 H34            0.1257    -4.7473    -1.8431 H       
  35 H35           -3.4056    -2.0560     1.9128 H       
  36 H36           -2.2853    -2.8009     3.0782 H       
  37 H37           -1.8859    -1.2324     2.3375 H       
  38 H38           -0.6472     2.2719    -2.2710 H       
  39 H39           -0.3066     3.5304    -4.3868 H       
  40 H40           -0.3512    -8.7607     0.8982 H       
  41 H41           -1.8802    -8.8065    -0.0119 H       
  42 H42           -0.6456    -9.4881    -2.0516 H       
  43 H43            0.8834    -9.4422    -1.1414 H       
  44 H44           -0.3667   -10.6379    -0.7218 H       
  45 H45           -1.4219     6.2966    -5.2652 H       
  46 H46           -0.0822     7.1918    -4.5087 H       
  47 H47            0.2410     5.6716    -5.3763 H       
  48 H48           -2.5843     6.3323     0.1088 H       
  49 H49           -1.1200     5.7061     0.9038 H       
  50 H50           -1.0464     7.2171    -0.0342 H       
@<TRIPOS>BOND
   1    1    2 ar
   2    1   20 1
   3    1    6 ar
   4    2    3 ar
   5    2   30 1
   6    3    4 ar
   7    3    7 1
   8    4    5 ar
   9    4   31 1
  10    5    6 ar
  11    5   32 1
  12    6   18 1
  13    7    8 2
  14    7    9 1
  15    8   13 1
  16    8   12 1
  17    9   10 2
  18    9   33 1
  19   10   11 1
  20   10   34 1
  21   11   12 1
  22   11   14 1
  23   12   16 2
  24   13   35 1
  25   13   36 1
  26   13   37 1
  27   14   15 2
  28   14   17 1
  29   15   16 1
  30   17   26 1
  31   18   19 1
  32   19   21 ar
  33   19   25 ar
  34   21   22 ar
  35   21   38 1
  36   22   23 ar
  37   22   39 1
  38   23   24 ar
  39   23   28 1
  40   24   25 ar
  41   25   29 1
  42   26   27 1
  43   26   40 1
  44   26   41 1
  45   27   42 1
  46   27   43 1
  47   27   44 1
  48   28   45 1
  49   28   46 1
  50   28   47 1
  51   29   48 1
  52   29   49 1
  53   29   50 1

#	End of record

