#	Name: ASD01840156
#	Creating user name:	WinNT
#	Creation time:	15. 06. 2019 19:37

#	Modifying user name:	WinNT
#	Modification time:	15. 06. 2019 19:37

#	Program:	/corina/corina34_cracker 3.40 0067  02.08.2006

@<TRIPOS>MOLECULE
ASD01840156
  52   55    0    0    0
SMALL
NO_CHARGES


@<TRIPOS>ATOM
   1 C1             0.9639     0.1370     3.6505 C.ar    
   2 C2             1.2862    -1.1875     3.9359 C.ar    
   3 N3             2.4730    -1.6809     3.6754 N.ar    
   4 C4             3.4316    -0.9327     3.1215 C.ar    
   5 C5             3.1703     0.4244     2.8047 C.ar    
   6 C6             1.8969     0.9581     3.0835 C.ar    
   7 C7             1.5725     2.3947     2.7642 C.3     
   8 C8             0.2432    -2.0776     4.5613 C.3     
   9 C9             4.7017    -1.4743     2.8474 C.ar    
  10 C10            5.6646    -0.7008     2.2853 C.ar    
  11 C11            5.4157     0.6464     1.9677 C.ar    
  12 C12            4.1763     1.2097     2.2244 C.ar    
  13 C13            6.4826     1.4660     1.3566 C.2     
  14 N14            7.6898     0.9222     1.1052 N.am    
  15 O15            6.2714     2.6309     1.0806 O.2     
  16 C16            8.7476     1.7348     0.4993 C.3     
  17 C17           10.1694     1.2365     0.8150 C.3     
  18 C18            9.0500     1.3668    -0.9645 C.3     
  19 N19           10.4769     1.5192    -0.6044 N.3     
  20 C20           11.2436     0.4997    -1.1613 C.ar    
  21 C21           12.5140     0.7580    -1.6683 C.ar    
  22 C22           13.2451    -0.2855    -2.2141 C.ar    
  23 N23           12.7467    -1.5111    -2.2553 N.ar    
  24 C24           11.5452    -1.7907    -1.7834 C.ar    
  25 C25           10.7600    -0.8089    -1.2202 C.ar    
  26 O26           14.4848    -0.0480    -2.7119 O.3     
  27 C27           11.0284    -3.2044    -1.8571 C.3     
  28 C28           15.1882    -1.1642    -3.2609 C.3     
  29 F29           14.4533    -1.7019    -4.3230 F       
  30 F30           16.4395    -0.7444    -3.7250 F       
  31 F31           15.3605    -2.1389    -2.2723 F       
  32 H32           -0.0237     0.5132     3.8730 H       
  33 H33            1.1721     2.4605     1.7525 H       
  34 H34            0.8323     2.7661     3.4728 H       
  35 H35            2.4785     2.9964     2.8363 H       
  36 H36           -0.3301    -2.5719     3.7772 H       
  37 H37            0.7315    -2.8283     5.1827 H       
  38 H38           -0.4261    -1.4762     5.1766 H       
  39 H39            4.9102    -2.5069     3.0851 H       
  40 H40            6.6359    -1.1258     2.0793 H       
  41 H41            3.9868     2.2444     1.9798 H       
  42 H42            7.8584    -0.0074     1.3254 H       
  43 H43            8.6102     2.8033     0.6655 H       
  44 H44           10.7114     1.8707     1.5166 H       
  45 H45           10.2169     0.1783     1.0723 H       
  46 H46            8.7700     0.3468    -1.2277 H       
  47 H47            8.6975     2.1051    -1.6847 H       
  48 H48           12.9239     1.7567    -1.6371 H       
  49 H49            9.7787    -1.0468    -0.8369 H       
  50 H50           11.3119    -3.7426    -0.9527 H       
  51 H51            9.9421    -3.1900    -1.9458 H       
  52 H52           11.4573    -3.7032    -2.7262 H       
@<TRIPOS>BOND
   1    1    2 ar
   2    1    6 ar
   3    1   32 1
   4    2    3 ar
   5    2    8 1
   6    3    4 ar
   7    4    5 ar
   8    4    9 ar
   9    5    6 ar
  10    5   12 ar
  11    6    7 1
  12    7   33 1
  13    7   34 1
  14    7   35 1
  15    8   36 1
  16    8   37 1
  17    8   38 1
  18    9   10 ar
  19    9   39 1
  20   10   11 ar
  21   10   40 1
  22   11   12 ar
  23   11   13 1
  24   12   41 1
  25   13   14 am
  26   13   15 2
  27   14   16 1
  28   14   42 1
  29   16   17 1
  30   16   18 1
  31   16   43 1
  32   17   19 1
  33   17   44 1
  34   17   45 1
  35   18   19 1
  36   18   46 1
  37   18   47 1
  38   19   20 1
  39   20   21 ar
  40   20   25 ar
  41   21   22 ar
  42   21   48 1
  43   22   23 ar
  44   22   26 1
  45   23   24 ar
  46   24   25 ar
  47   24   27 1
  48   25   49 1
  49   26   28 1
  50   27   50 1
  51   27   51 1
  52   27   52 1
  53   28   29 1
  54   28   30 1
  55   28   31 1

#	End of record

