#	Name: ASD01180250
#	Creating user name:	WinNT
#	Creation time:	15. 06. 2019 19:07

#	Modifying user name:	WinNT
#	Modification time:	15. 06. 2019 19:07

#	Program:	/corina/corina34_cracker 3.40 0067  02.08.2006

@<TRIPOS>MOLECULE
ASD01180250
  63   65    0    0    0
SMALL
NO_CHARGES


@<TRIPOS>ATOM
   1 C1             1.8253    -3.9045    -9.1614 C.2     
   2 C2             1.5609    -4.7010    -7.9097 C.3     
   3 C3             2.7895    -4.6437    -6.9997 C.3     
   4 O4             2.8875    -3.3482    -9.3104 O.2     
   5 O5             0.8829    -3.8178   -10.1133 O.3     
   6 N6             2.5325    -5.4180    -5.7829 N.am    
   7 C7             3.4808    -5.5097    -4.8296 C.2     
   8 O8             4.5490    -4.9502    -4.9795 O.2     
   9 C9             3.2207    -6.2930    -3.5986 C.ar    
  10 N10            4.1664    -6.3712    -2.6726 N.ar    
  11 C11            3.9723    -7.0586    -1.5639 C.ar    
  12 C12            2.7507    -7.7086    -1.3738 C.ar    
  13 C13            1.7804    -7.6020    -2.3727 C.ar    
  14 N14            2.0470    -6.8916    -3.4515 N.ar    
  15 N15            2.5069    -8.4441    -0.2187 N.pl3   
  16 C16            1.1724    -8.9945     0.0311 C.3     
  17 C17            0.9616    -9.1571     1.5378 C.3     
  18 C18            0.9709    -7.7805     2.2055 C.3     
  19 C19           -0.2415    -6.9761     1.7326 C.3     
  20 C20            0.8224   -12.8051    -1.8758 C.ar    
  21 C21           -0.2483   -11.9136    -1.8931 C.ar    
  22 C22           -0.1297   -10.6847    -1.2762 C.ar    
  23 C23            1.0491   -10.3376    -0.6412 C.ar    
  24 C24            2.1153   -11.2186    -0.6213 C.ar    
  25 C25            2.0077   -12.4501    -1.2350 C.ar    
  26 C26            0.6987   -14.1303    -2.5321 C.ar    
  27 C27            1.7694   -15.0218    -2.5148 C.ar    
  28 C28            1.6488   -16.2530    -3.1268 C.ar    
  29 C29            0.4681   -16.6023    -3.7569 C.ar    
  30 C30           -0.5978   -15.7210    -3.7775 C.ar    
  31 C31           -0.4905   -14.4898    -3.1629 C.ar    
  32 C32            0.3426   -17.9478    -4.4239 C.3     
  33 F33           -0.1449   -18.8812    -3.5029 F       
  34 F34           -0.5418   -17.8524    -5.5037 F       
  35 F35            1.5981   -18.3589    -4.8843 F       
  36 C36            0.9093    -7.9502     3.7248 C.3     
  37 H37            0.7015    -4.2813    -7.3868 H       
  38 H38            1.3536    -5.7376    -8.1756 H       
  39 H39            3.6488    -5.0635    -7.5227 H       
  40 H40            2.9967    -3.6072    -6.7338 H       
  41 H41            1.0985    -3.2957   -10.8982 H       
  42 H42            1.6797    -5.8646    -5.6633 H       
  43 H43            4.7471    -7.1184    -0.8139 H       
  44 H44            0.8239    -8.0911    -2.2615 H       
  45 H45            3.2204    -8.5925     0.4215 H       
  46 H46            0.4189    -8.3168    -0.3701 H       
  47 H47            0.0031    -9.6429     1.7202 H       
  48 H48            1.7633    -9.7678     1.9530 H       
  49 H49            1.8853    -7.2521     1.9357 H       
  50 H50           -1.1557    -7.5083     1.9955 H       
  51 H51           -0.2391    -5.9983     2.2143 H       
  52 H52           -0.1936    -6.8485     0.6512 H       
  53 H53           -1.1692   -12.1836    -2.3886 H       
  54 H54           -0.9590    -9.9929    -1.2890 H       
  55 H55            3.0335   -10.9424    -0.1244 H       
  56 H56            2.8405   -13.1375    -1.2183 H       
  57 H57            2.6920   -14.7498    -2.0237 H       
  58 H58            2.4781   -16.9448    -3.1140 H       
  59 H59           -1.5173   -15.9986    -4.2713 H       
  60 H60           -1.3251   -13.8045    -3.1751 H       
  61 H61            1.7731    -8.5234     4.0617 H       
  62 H62            0.9160    -6.9696     4.2005 H       
  63 H63           -0.0050    -8.4787     3.9946 H       
@<TRIPOS>BOND
   1    1    2 1
   2    1    4 2
   3    1    5 1
   4    2    3 1
   5    2   37 1
   6    2   38 1
   7    3    6 1
   8    3   39 1
   9    3   40 1
  10    5   41 1
  11    6    7 am
  12    6   42 1
  13    7    8 2
  14    7    9 1
  15    9   10 ar
  16    9   14 ar
  17   10   11 ar
  18   11   12 ar
  19   11   43 1
  20   12   13 ar
  21   12   15 1
  22   13   14 ar
  23   13   44 1
  24   15   16 1
  25   15   45 1
  26   16   17 1
  27   16   23 1
  28   16   46 1
  29   17   18 1
  30   17   47 1
  31   17   48 1
  32   18   19 1
  33   18   36 1
  34   18   49 1
  35   19   50 1
  36   19   51 1
  37   19   52 1
  38   20   21 ar
  39   20   25 ar
  40   20   26 1
  41   21   22 ar
  42   21   53 1
  43   22   23 ar
  44   22   54 1
  45   23   24 ar
  46   24   25 ar
  47   24   55 1
  48   25   56 1
  49   26   27 ar
  50   26   31 ar
  51   27   28 ar
  52   27   57 1
  53   28   29 ar
  54   28   58 1
  55   29   30 ar
  56   29   32 1
  57   30   31 ar
  58   30   59 1
  59   31   60 1
  60   32   33 1
  61   32   34 1
  62   32   35 1
  63   36   61 1
  64   36   62 1
  65   36   63 1

#	End of record

