#	Name: ASD04880235
#	Creating user name:	WinNT
#	Creation time:	15. 06. 2019 20:53

#	Modifying user name:	WinNT
#	Modification time:	15. 06. 2019 20:53

#	Program:	/corina/corina34_cracker 3.40 0067  02.08.2006

@<TRIPOS>MOLECULE
ASD04880235
  41   44    0    0    0
SMALL
NO_CHARGES


@<TRIPOS>ATOM
   1 C1            -0.0144     1.2118     0.0087 C.2     
   2 O2             0.0581    -0.0018    -0.0140 O.2     
   3 C3             1.2185     2.0263    -0.0194 C.ar    
   4 C4             2.4678     1.4102     0.0723 C.ar    
   5 C5             3.6162     2.1779     0.0449 C.ar    
   6 C6             3.5282     3.5560    -0.0732 C.ar    
   7 C7             2.2926     4.1706    -0.1644 C.ar    
   8 C8             1.1386     3.4143    -0.1435 C.ar    
   9 F9             4.8265     1.5844     0.1339 F       
  10 N10           -1.2192     1.8142     0.0539 N.am    
  11 N11           -1.4360     3.1833     0.1955 N.2     
  12 C12           -2.6796     3.5204     0.2120 C.2     
  13 C13           -3.5396     2.2852     0.0679 C.3     
  14 C14           -2.5204     1.1341    -0.0447 C.3     
  15 C15           -3.7722     9.7765     1.2119 C.3     
  16 C16           -2.4542     9.7136     0.4294 C.3     
  17 C17           -1.7722     8.3799     0.7437 C.3     
  18 C18           -2.7674     7.2554     0.6058 C.ar    
  19 C19           -2.2936     5.9638     0.4771 C.ar    
  20 C20           -3.1858     4.8979     0.3505 C.ar    
  21 C21           -4.5617     5.1436     0.3552 C.ar    
  22 C22           -5.0255     6.4328     0.4829 C.ar    
  23 C23           -4.1323     7.4953     0.6066 C.ar    
  24 O24           -4.6368     8.7515     0.7207 O.3     
  25 H25            2.5364     0.3364     0.1648 H       
  26 H26            4.4283     4.1525    -0.0939 H       
  27 H27            2.2309     5.2449    -0.2563 H       
  28 H28            0.1749     3.8960    -0.2189 H       
  29 H29           -4.1729     2.1557     0.9456 H       
  30 H30           -4.1453     2.3444    -0.8364 H       
  31 H31           -2.6163     0.6268    -1.0047 H       
  32 H32           -2.6482     0.4295     0.7771 H       
  33 H33           -3.5776     9.6156     2.2723 H       
  34 H34           -4.2388    10.7509     1.0675 H       
  35 H35           -2.6579     9.7793    -0.6394 H       
  36 H36           -1.8075    10.5373     0.7321 H       
  37 H37           -0.9475     8.2216     0.0488 H       
  38 H38           -1.3875     8.4006     1.7633 H       
  39 H39           -1.2296     5.7785     0.4739 H       
  40 H40           -5.2586     4.3243     0.2586 H       
  41 H41           -6.0887     6.6225     0.4864 H       
@<TRIPOS>BOND
   1    1    2 2
   2    1    3 1
   3    1   10 am
   4    3    4 ar
   5    3    8 ar
   6    4    5 ar
   7    4   25 1
   8    5    6 ar
   9    5    9 1
  10    6    7 ar
  11    6   26 1
  12    7    8 ar
  13    7   27 1
  14    8   28 1
  15   10   11 1
  16   10   14 1
  17   11   12 2
  18   12   13 1
  19   12   20 1
  20   13   14 1
  21   13   29 1
  22   13   30 1
  23   14   31 1
  24   14   32 1
  25   15   16 1
  26   15   24 1
  27   15   33 1
  28   15   34 1
  29   16   17 1
  30   16   35 1
  31   16   36 1
  32   17   18 1
  33   17   37 1
  34   17   38 1
  35   18   19 ar
  36   18   23 ar
  37   19   20 ar
  38   19   39 1
  39   20   21 ar
  40   21   22 ar
  41   21   40 1
  42   22   23 ar
  43   22   41 1
  44   23   24 1

#	End of record

