#	Name: ASD02500740
#	Creating user name:	WinNT
#	Creation time:	15. 06. 2019 20:23

#	Modifying user name:	WinNT
#	Modification time:	15. 06. 2019 20:23

#	Program:	/corina/corina34_cracker 3.40 0067  02.08.2006

@<TRIPOS>MOLECULE
ASD02500740
  68   72    0    0    0
SMALL
NO_CHARGES


@<TRIPOS>ATOM
   1 N1             2.0861     3.8333    -0.4661 N.ar    
   2 C2             2.9917     3.4470     0.3993 C.ar    
   3 C3             4.1099     2.7117     0.0115 C.ar    
   4 C4             4.2830     2.3752    -1.3008 C.ar    
   5 C5             3.3081     2.7914    -2.2272 C.ar    
   6 C6             3.4184     2.4836    -3.5925 C.ar    
   7 C7             2.4544     2.9048    -4.4572 C.ar    
   8 C8             1.3595     3.6381    -4.0052 C.ar    
   9 C9             1.2211     3.9542    -2.6886 C.ar    
  10 C10            2.1953     3.5373    -1.7651 C.ar    
  11 S11           -0.1734     4.8834    -2.1441 S.o2    
  12 O12            0.3360     5.9345    -1.3349 O.2     
  13 O13           -0.9795     5.1075    -3.2927 O.2     
  14 N14           -1.0530     3.9040    -1.1394 N.am    
  15 C15           -1.6155     2.7307    -1.6296 C.ar    
  16 C16           -1.4701     1.5415    -0.9205 C.ar    
  17 C17           -2.0256     0.3786    -1.4030 C.ar    
  18 C18           -2.7364     0.3923    -2.6067 C.ar    
  19 C19           -2.8807     1.5880    -3.3164 C.ar    
  20 C20           -2.3277     2.7486    -2.8257 C.ar    
  21 C21           -3.3328    -0.8527    -3.1270 C.2     
  22 O22           -4.4386    -0.8322    -3.6322 O.2     
  23 N23           -2.6518    -2.0127    -3.0424 N.am    
  24 C24           -3.1850    -3.2463    -3.6401 C.3     
  25 C25           -2.0970    -3.8703    -4.5205 C.3     
  26 N26           -0.8710    -4.0427    -3.7300 N.3     
  27 C27           -0.3400    -2.7486    -3.2812 C.3     
  28 C28           -1.3530    -2.0773    -2.3553 C.3     
  29 C29            0.0912    -4.7567    -4.4477 C.ar    
  30 C30            1.3266    -5.0273    -3.8751 C.ar    
  31 C31            2.2784    -5.7365    -4.5903 C.ar    
  32 C32            1.9948    -6.1745    -5.8767 C.ar    
  33 C33            0.7647    -5.9044    -6.4451 C.ar    
  34 C34           -0.1889    -5.2022    -5.7335 C.ar    
  35 O35            3.4889    -6.0026    -4.0329 O.3     
  36 C36            4.3779    -6.8357    -4.7796 C.3     
  37 C37            5.2573    -5.9653    -5.6796 C.3     
  38 C38            5.2624    -7.6299    -3.8164 C.3     
  39 H39            2.8680     3.7058     1.4405 H       
  40 H40            4.8393     2.4083     0.7480 H       
  41 H41            5.1439     1.8060    -1.6189 H       
  42 H42            4.2629     1.9163    -3.9549 H       
  43 H43            2.5400     2.6675    -5.5074 H       
  44 H44            0.6086     3.9613    -4.7110 H       
  45 H45           -1.1759     4.1488    -0.2089 H       
  46 H46           -0.9205     1.5315     0.0092 H       
  47 H47           -1.9121    -0.5437    -0.8526 H       
  48 H48           -3.4290     1.6016    -4.2467 H       
  49 H49           -2.4428     3.6736    -3.3711 H       
  50 H50           -3.4630    -3.9450    -2.8511 H       
  51 H51           -4.0580    -3.0107    -4.2487 H       
  52 H52           -2.4352    -4.8409    -4.8835 H       
  53 H53           -1.8945    -3.2151    -5.3677 H       
  54 H54            0.5962    -2.9057    -2.7454 H       
  55 H55           -0.1619    -2.1090    -4.1456 H       
  56 H56           -1.0155    -1.0692    -2.1148 H       
  57 H57           -1.4515    -2.6615    -1.4403 H       
  58 H58            1.5457    -4.6855    -2.8744 H       
  59 H59            2.7368    -6.7269    -6.4341 H       
  60 H60            0.5470    -6.2461    -7.4462 H       
  61 H61           -1.1512    -4.9963    -6.1785 H       
  62 H62            3.7994    -7.5254    -5.3942 H       
  63 H63            5.8358    -5.2756    -5.0650 H       
  64 H64            5.9355    -6.6008    -6.2492 H       
  65 H65            4.6272    -5.3995    -6.3658 H       
  66 H66            4.6359    -8.2499    -3.1752 H       
  67 H67            5.9406    -8.2654    -4.3859 H       
  68 H68            5.8409    -6.9402    -3.2018 H       
@<TRIPOS>BOND
   1    1    2 ar
   2    1   10 ar
   3    2    3 ar
   4    2   39 1
   5    3    4 ar
   6    3   40 1
   7    4    5 ar
   8    4   41 1
   9    5    6 ar
  10    5   10 ar
  11    6    7 ar
  12    6   42 1
  13    7    8 ar
  14    7   43 1
  15    8    9 ar
  16    8   44 1
  17    9   10 ar
  18    9   11 1
  19   11   12 2
  20   11   13 2
  21   11   14 am
  22   14   15 1
  23   14   45 1
  24   15   16 ar
  25   15   20 ar
  26   16   17 ar
  27   16   46 1
  28   17   18 ar
  29   17   47 1
  30   18   19 ar
  31   18   21 1
  32   19   20 ar
  33   19   48 1
  34   20   49 1
  35   21   22 2
  36   21   23 am
  37   23   24 1
  38   23   28 1
  39   24   25 1
  40   24   50 1
  41   24   51 1
  42   25   26 1
  43   25   52 1
  44   25   53 1
  45   26   27 1
  46   26   29 1
  47   27   28 1
  48   27   54 1
  49   27   55 1
  50   28   56 1
  51   28   57 1
  52   29   30 ar
  53   29   34 ar
  54   30   31 ar
  55   30   58 1
  56   31   32 ar
  57   31   35 1
  58   32   33 ar
  59   32   59 1
  60   33   34 ar
  61   33   60 1
  62   34   61 1
  63   35   36 1
  64   36   37 1
  65   36   38 1
  66   36   62 1
  67   37   63 1
  68   37   64 1
  69   37   65 1
  70   38   66 1
  71   38   67 1
  72   38   68 1

#	End of record

