#	Name: ASD01510068
#	Creating user name:	WinNT
#	Creation time:	15. 06. 2019 19:21

#	Modifying user name:	WinNT
#	Modification time:	15. 06. 2019 19:21

#	Program:	/corina/corina34_cracker 3.40 0067  02.08.2006

@<TRIPOS>MOLECULE
ASD01510068
  50   52    0    0    0
SMALL
NO_CHARGES


@<TRIPOS>ATOM
   1 C1            -2.1437    -2.4509    -1.1358 C.2     
   2 C2            -1.0696    -1.9064    -0.5710 C.2     
   3 C3             0.2154    -2.6213    -0.5938 C.2     
   4 O4             0.2959    -3.7105    -1.1290 O.2     
   5 N5             1.3038    -2.0696    -0.0215 N.am    
   6 C6             2.4967    -2.7951     0.0558 C.ar    
   7 C7             3.7171    -2.1412    -0.0616 C.ar    
   8 C8             4.8969    -2.8569     0.0151 C.ar    
   9 C9             4.8677    -4.2240     0.2085 C.ar    
  10 C10            3.6497    -4.8850     0.3264 C.ar    
  11 C11            2.4630    -4.1677     0.2555 C.ar    
  12 S12            3.6129    -6.6294     0.5721 S.3     
  13 C13            5.3207    -7.0622     0.5978 C.ar    
  14 C14            6.0379    -7.0713     1.7942 C.ar    
  15 O15            5.4305    -6.7463     2.9626 O.3     
  16 C16            6.2349    -6.7799     4.1432 C.3     
  17 N17            7.3244    -7.4031     1.7732 N.ar    
  18 C18            7.9249    -7.7221     0.6369 C.ar    
  19 N19            7.2773    -7.7249    -0.5182 N.ar    
  20 C20            5.9877    -7.4099    -0.5770 C.ar    
  21 O21            5.3319    -7.4157    -1.7642 O.3     
  22 C22            6.0896    -7.7717    -2.9223 C.3     
  23 N23            9.2689    -8.0622     0.6570 N.3     
  24 C24            9.7516    -8.3825    -0.6942 C.3     
  25 C25           11.2495    -8.6933    -0.6348 C.3     
  26 O26           11.4732    -9.7630     0.2878 O.3     
  27 C27           11.0156    -9.4847     1.6139 C.3     
  28 C28            9.5153    -9.1820     1.5772 C.3     
  29 H29           -2.0723    -3.4180    -1.6111 H       
  30 H30           -3.0884    -1.9278    -1.1152 H       
  31 H31           -1.1411    -0.9392    -0.0957 H       
  32 H32            1.2596    -1.1693     0.3368 H       
  33 H33            3.7438    -1.0722    -0.2133 H       
  34 H34            5.8440    -2.3460    -0.0769 H       
  35 H35            5.7914    -4.7803     0.2680 H       
  36 H36            1.5156    -4.6783     0.3467 H       
  37 H37            6.6271    -7.7866     4.2871 H       
  38 H38            7.0629    -6.0788     4.0387 H       
  39 H39            5.6281    -6.4997     5.0043 H       
  40 H40            5.4469    -7.7366    -3.8019 H       
  41 H41            6.9144    -7.0700    -3.0467 H       
  42 H42            6.4856    -8.7800    -2.8015 H       
  43 H43            9.2146    -9.2507    -1.0762 H       
  44 H44            9.5825    -7.5305    -1.3526 H       
  45 H45           11.5999    -8.9868    -1.6243 H       
  46 H46           11.7921    -7.8078    -0.3038 H       
  47 H47           11.1967   -10.3506     2.2506 H       
  48 H48           11.5514    -8.6222     2.0103 H       
  49 H49            9.1737    -8.9135     2.5769 H       
  50 H50            8.9746   -10.0630     1.2315 H       
@<TRIPOS>BOND
   1    1    2 2
   2    1   29 1
   3    1   30 1
   4    2    3 1
   5    2   31 1
   6    3    4 2
   7    3    5 am
   8    5    6 1
   9    5   32 1
  10    6    7 ar
  11    6   11 ar
  12    7    8 ar
  13    7   33 1
  14    8    9 ar
  15    8   34 1
  16    9   10 ar
  17    9   35 1
  18   10   11 ar
  19   10   12 1
  20   11   36 1
  21   12   13 1
  22   13   14 ar
  23   13   20 ar
  24   14   15 1
  25   14   17 ar
  26   15   16 1
  27   16   37 1
  28   16   38 1
  29   16   39 1
  30   17   18 ar
  31   18   19 ar
  32   18   23 1
  33   19   20 ar
  34   20   21 1
  35   21   22 1
  36   22   40 1
  37   22   41 1
  38   22   42 1
  39   23   24 1
  40   23   28 1
  41   24   25 1
  42   24   43 1
  43   24   44 1
  44   25   26 1
  45   25   45 1
  46   25   46 1
  47   26   27 1
  48   27   28 1
  49   27   47 1
  50   27   48 1
  51   28   49 1
  52   28   50 1

#	End of record

