#	Name: ASD01028339
#	Creating user name:	WinNT
#	Creation time:	15. 06. 2019 18:57

#	Modifying user name:	WinNT
#	Modification time:	15. 06. 2019 18:57

#	Program:	/corina/corina34_cracker 3.40 0067  02.08.2006

@<TRIPOS>MOLECULE
ASD01028339
  37   40    0    0    0
SMALL
NO_CHARGES


@<TRIPOS>ATOM
   1 C1            -0.0168     1.3879     0.0097 C.ar    
   2 C2             0.0021    -0.0041     0.0020 C.ar    
   3 C3             1.1914     2.0787     0.0018 C.ar    
   4 C4             2.3741     1.3439    -0.0134 C.ar    
   5 C5             2.3128    -0.0374    -0.0202 C.ar    
   6 N6             1.1553    -0.6645    -0.0125 N.ar    
   7 O7             1.2162     3.4359     0.0085 O.3     
   8 C8             2.5011     4.0613    -0.0004 C.3     
   9 C9             2.3310     5.5587     0.0087 C.2     
  10 N10            2.2512     6.3453     1.1041 N.pl3   
  11 C11            2.1017     7.6301     0.6382 C.2     
  12 N12            2.0983     7.5602    -0.6829 N.2     
  13 N13            2.2396     6.3326    -1.0439 N.2     
  14 N14            2.2905     6.0989     2.4780 N.2     
  15 C15            2.1853     7.0893     3.3361 C.2     
  16 C16            2.0303     8.4187     2.8892 C.2     
  17 C17            1.9895     8.6899     1.5581 C.2     
  18 C18            2.2294     6.8057     4.7917 C.ar    
  19 C19           -1.2319    -0.7307     0.0104 C.1     
  20 N20           -2.2107    -1.3071     0.0170 N.1     
  21 C21            2.3816     5.4968     5.2449 C.ar    
  22 C22            2.4225     5.2388     6.6001 C.ar    
  23 C23            2.3128     6.2767     7.5079 C.ar    
  24 C24            2.1616     7.5779     7.0637 C.ar    
  25 C25            2.1247     7.8480     5.7108 C.ar    
  26 H26           -0.9546     1.9235     0.0170 H       
  27 H27            3.3293     1.8477    -0.0202 H       
  28 H28            3.2282    -0.6104    -0.0320 H       
  29 H29            3.0609     3.7538     0.8828 H       
  30 H30            3.0443     3.7628    -0.8970 H       
  31 H31            1.9444     9.2220     3.6060 H       
  32 H32            1.8710     9.7055     1.2103 H       
  33 H33            2.4670     4.6856     4.5370 H       
  34 H34            2.5401     4.2247     6.9525 H       
  35 H35            2.3450     6.0703     8.5676 H       
  36 H36            2.0760     8.3844     7.7769 H       
  37 H37            2.0066     8.8643     5.3650 H       
@<TRIPOS>BOND
   1    1    2 ar
   2    1    3 ar
   3    1   26 1
   4    2   19 1
   5    2    6 ar
   6    3    4 ar
   7    3    7 1
   8    4    5 ar
   9    4   27 1
  10    5    6 ar
  11    5   28 1
  12    7    8 1
  13    8    9 1
  14    8   29 1
  15    8   30 1
  16    9   10 1
  17    9   13 2
  18   10   11 1
  19   10   14 1
  20   11   12 2
  21   11   17 1
  22   12   13 1
  23   14   15 2
  24   15   16 1
  25   15   18 1
  26   16   17 2
  27   16   31 1
  28   17   32 1
  29   18   21 ar
  30   18   25 ar
  31   19   20 3
  32   21   22 ar
  33   21   33 1
  34   22   23 ar
  35   22   34 1
  36   23   24 ar
  37   23   35 1
  38   24   25 ar
  39   24   36 1
  40   25   37 1

#	End of record

