#	Name: ASD01870301
#	Creating user name:	WinNT
#	Creation time:	15. 06. 2019 19:39

#	Modifying user name:	WinNT
#	Modification time:	15. 06. 2019 19:39

#	Program:	/corina/corina34_cracker 3.40 0067  02.08.2006

@<TRIPOS>MOLECULE
ASD01870301
  40   42    0    0    0
SMALL
NO_CHARGES


@<TRIPOS>ATOM
   1 N1            -1.0647     6.1753     0.2021 N.2     
   2 C2            -2.3258     6.1026     0.6067 C.2     
   3 C3            -2.5927     5.1198     1.4869 C.2     
   4 S4            -1.0981     4.2406     1.8005 S.3     
   5 C5            -0.2384     5.3046     0.6914 C.2     
   6 N6             1.1138     5.2229     0.3876 N.am    
   7 C7             1.9434     4.1886     1.0105 C.3     
   8 C8             1.6633     6.0952    -0.4806 C.2     
   9 C9             3.0675     6.5200    -0.3113 C.ar    
  10 O10            1.0030     6.5324    -1.4030 O.2     
  11 C11            4.0472     5.5835     0.0262 C.ar    
  12 C12            3.4216     7.8587    -0.4937 C.ar    
  13 C13            4.7338     8.2496    -0.3349 C.ar    
  14 C14            5.7015     7.3165     0.0049 C.ar    
  15 C15            5.3563     5.9854     0.1825 C.ar    
  16 F16            6.9863     7.7050     0.1588 F       
  17 C17           -3.3680     7.0383     0.1236 C.ar    
  18 C18           -3.0313     8.0377    -0.7889 C.ar    
  19 C19           -4.0153     8.9036    -1.2305 C.ar    
  20 C20           -5.3064     8.7429    -0.7455 C.ar    
  21 C21           -5.5706     7.7309     0.1575 C.ar    
  22 N22           -4.6160     6.9153     0.5586 N.ar    
  23 C23            2.5195     3.2754    -0.0735 C.3     
  24 C24            3.0877     4.8488     1.7823 C.3     
  25 H25           -3.5564     4.9073     1.9258 H       
  26 H26            1.3350     3.5992     1.6965 H       
  27 H27            3.7795     4.5464     0.1647 H       
  28 H28            2.6687     8.5862    -0.7591 H       
  29 H29            5.0087     9.2845    -0.4757 H       
  30 H30            6.1147     5.2621     0.4434 H       
  31 H31           -2.0164     8.1345    -1.1454 H       
  32 H32           -3.7844     9.6875    -1.9366 H       
  33 H33           -6.0969     9.4031    -1.0708 H       
  34 H34           -6.5740     7.6036     0.5363 H       
  35 H35            2.4277     3.7616    -1.0447 H       
  36 H36            3.5710     3.0800     0.1371 H       
  37 H37            1.9702     2.3339    -0.0851 H       
  38 H38            2.8920     4.7793     2.8523 H       
  39 H39            4.0234     4.3402     1.5503 H       
  40 H40            3.1629     5.8973     1.4940 H       
@<TRIPOS>BOND
   1    1    2 1
   2    1    5 2
   3    2    3 2
   4    2   17 1
   5    3    4 1
   6    3   25 1
   7    4    5 1
   8    5    6 1
   9    6    7 1
  10    6    8 am
  11    7   23 1
  12    7   24 1
  13    7   26 1
  14    8    9 1
  15    8   10 2
  16    9   12 ar
  17    9   11 ar
  18   11   15 ar
  19   11   27 1
  20   12   13 ar
  21   12   28 1
  22   13   14 ar
  23   13   29 1
  24   14   15 ar
  25   14   16 1
  26   15   30 1
  27   17   18 ar
  28   17   22 ar
  29   18   19 ar
  30   18   31 1
  31   19   20 ar
  32   19   32 1
  33   20   21 ar
  34   20   33 1
  35   21   22 ar
  36   21   34 1
  37   23   35 1
  38   23   36 1
  39   23   37 1
  40   24   38 1
  41   24   39 1
  42   24   40 1

#	End of record

