#	Name: ASD03330896
#	Creating user name:	WinNT
#	Creation time:	15. 06. 2019 20:38

#	Modifying user name:	WinNT
#	Modification time:	15. 06. 2019 20:38

#	Program:	/corina/corina34_cracker 3.40 0067  02.08.2006

@<TRIPOS>MOLECULE
ASD03330896
  55   57    0    0    0
SMALL
NO_CHARGES


@<TRIPOS>ATOM
   1 C1            -0.7687     0.8861    -0.3875 C.ar    
   2 C2            -0.5542    -0.5766    -0.3356 C.2     
   3 N3            -1.4790    -1.5025     0.0396 N.pl3   
   4 C4            -0.8886    -2.7273    -0.0487 C.2     
   5 C5             0.3847    -2.5298    -0.4771 C.2     
   6 N6             0.5587    -1.1999    -0.6493 N.2     
   7 C7             1.3935    -3.5768    -0.7168 C.2     
   8 N8             2.6265    -3.2395    -1.1438 N.am    
   9 C9            -1.8399     1.4609     0.2969 C.ar    
  10 O10            1.1135    -4.7454    -0.5293 O.2     
  11 C11            3.6295    -4.2804    -1.3821 C.3     
  12 C12            4.6558    -3.7765    -2.3988 C.3     
  13 C13            4.3260    -4.6126    -0.0877 C.2     
  14 C14            3.9661    -3.5352    -3.7430 C.3     
  15 C15           -2.8628    -1.2793     0.4654 C.3     
  16 C16           -3.6279    -2.6037     0.3671 C.3     
  17 C17           -2.8437    -3.7062     1.0844 C.3     
  18 C18           -1.5745    -4.0276     0.2835 C.3     
  19 O19            4.0152    -4.0366     0.9334 O.2     
  20 C20           -2.0355     2.8273     0.2450 C.ar    
  21 C21           -1.1686     3.6265    -0.4868 C.ar    
  22 C22           -0.1042     3.0586    -1.1679 C.ar    
  23 C23            0.1031     1.6959    -1.1165 C.ar    
  24 F24           -1.3634     4.9625    -0.5356 F       
  25 F25           -3.0721     3.3863     0.9070 F       
  26 N26            5.2943    -5.5498    -0.0646 N.am    
  27 C27            5.9714    -5.8728     1.1937 C.3     
  28 C28            4.9569    -2.8943    -4.7169 C.3     
  29 C29            3.4804    -4.8691    -4.3137 C.3     
  30 H30            2.8499    -2.3075    -1.2934 H       
  31 H31           -2.5149     0.8389     0.8659 H       
  32 H32            3.1408    -5.1736    -1.7713 H       
  33 H33            5.0929    -2.8439    -2.0421 H       
  34 H34            5.4413    -4.5221    -2.5222 H       
  35 H35            3.1148    -2.8696    -3.6002 H       
  36 H36           -2.8755    -0.9255     1.4963 H       
  37 H37           -3.3299    -0.5383    -0.1834 H       
  38 H38           -4.6068    -2.4927     0.8335 H       
  39 H39           -3.7547    -2.8724    -0.6816 H       
  40 H40           -2.5678    -3.3661     2.0825 H       
  41 H41           -3.4615    -4.6008     1.1619 H       
  42 H42           -1.8415    -4.5483    -0.6361 H       
  43 H43           -0.9103    -4.6520     0.8811 H       
  44 H44            0.5673     3.6847    -1.7367 H       
  45 H45            0.9334     1.2550    -1.6481 H       
  46 H46            5.5428    -6.0105    -0.8813 H       
  47 H47            6.4601    -4.9796     1.5830 H       
  48 H48            5.2402    -6.2317     1.9180 H       
  49 H49            6.7176    -6.6472     1.0164 H       
  50 H50            4.4430    -2.6419    -5.6444 H       
  51 H51            5.3695    -1.9888    -4.2720 H       
  52 H52            5.7641    -3.5957    -4.9280 H       
  53 H53            2.7745    -5.3257    -3.6199 H       
  54 H54            2.9890    -4.6971    -5.2714 H       
  55 H55            4.3316    -5.5347    -4.4565 H       
@<TRIPOS>BOND
   1    1    2 1
   2    1    9 ar
   3    1   23 ar
   4    2    3 1
   5    2    6 2
   6    3    4 1
   7    3   15 1
   8    4    5 2
   9    4   18 1
  10    5    6 1
  11    5    7 1
  12    7    8 am
  13    7   10 2
  14    8   11 1
  15    8   30 1
  16    9   20 ar
  17    9   31 1
  18   11   12 1
  19   11   13 1
  20   11   32 1
  21   12   14 1
  22   12   33 1
  23   12   34 1
  24   13   19 2
  25   13   26 am
  26   14   28 1
  27   14   29 1
  28   14   35 1
  29   15   16 1
  30   15   36 1
  31   15   37 1
  32   16   17 1
  33   16   38 1
  34   16   39 1
  35   17   18 1
  36   17   40 1
  37   17   41 1
  38   18   42 1
  39   18   43 1
  40   20   21 ar
  41   20   25 1
  42   21   22 ar
  43   21   24 1
  44   22   23 ar
  45   22   44 1
  46   23   45 1
  47   26   27 1
  48   26   46 1
  49   27   47 1
  50   27   48 1
  51   27   49 1
  52   28   50 1
  53   28   51 1
  54   28   52 1
  55   29   53 1
  56   29   54 1
  57   29   55 1

#	End of record

