#	Name: ASD01883653
#	Creating user name:	WinNT
#	Creation time:	15. 06. 2019 19:46

#	Modifying user name:	WinNT
#	Modification time:	15. 06. 2019 19:46

#	Program:	/corina/corina34_cracker 3.40 0067  02.08.2006

@<TRIPOS>MOLECULE
ASD01883653
  48   51    0    0    0
SMALL
NO_CHARGES


@<TRIPOS>ATOM
   1 C1            -0.0164     1.3569     0.0095 C.2     
   2 C2             0.0021    -0.0041     0.0020 C.2     
   3 C3            -1.2087    -0.7162     0.0102 C.2     
   4 C4            -2.3862    -0.0574     0.0255 C.2     
   5 N5            -2.4197     1.3075     0.0332 N.pl3   
   6 C6            -1.2553     2.0305     0.0309 C.2     
   7 C7            -3.4497     2.2079     0.0483 C.2     
   8 C8            -2.9006     3.4425     0.0495 C.2     
   9 N9            -1.5714     3.3178     0.0396 N.2     
  10 Cl10           1.4697     2.2543     0.0001 Cl      
  11 C11           -4.9213     1.8835     0.0605 C.3     
  12 C12           -5.4602     1.9049    -1.3713 C.3     
  13 F13           -4.7795     0.9546    -2.1400 F       
  14 F14           -6.8263     1.6037    -1.3600 F       
  15 F15           -5.2674     3.1759    -1.9232 F       
  16 C16            1.3152    -0.7434    -0.0155 C.3     
  17 N17            1.6969    -1.0962     1.3585 N.3     
  18 C18            2.8416    -2.0176     1.3669 C.3     
  19 C19            3.2574    -2.2971     2.8131 C.3     
  20 N20            2.1190    -2.8693     3.5455 N.3     
  21 C21            0.9743    -1.9478     3.5370 C.3     
  22 C22            0.5585    -1.6683     2.0909 C.3     
  23 C23            2.4824    -3.2051     4.8535 C.ar    
  24 C24            1.8313    -2.6146     5.9313 C.ar    
  25 C25            2.1939    -2.9496     7.2230 C.ar    
  26 C26            3.2024    -3.8699     7.4425 C.ar    
  27 C27            3.8511    -4.4582     6.3725 C.ar    
  28 C28            3.4901    -4.1331     5.0792 C.ar    
  29 F29            0.8466    -1.7149     5.7166 F       
  30 H30           -1.1971    -1.7961     0.0040 H       
  31 H31           -3.3111    -0.6151     0.0314 H       
  32 H32           -3.4459     4.3746     0.0594 H       
  33 H33           -5.0715     0.8932     0.4905 H       
  34 H34           -5.4517     2.6239     0.6594 H       
  35 H35            1.2127    -1.6520    -0.6088 H       
  36 H36            2.0842    -0.1077    -0.4544 H       
  37 H37            2.5595    -2.9524     0.8825 H       
  38 H38            3.6756    -1.5664     0.8295 H       
  39 H39            4.0879    -3.0031     2.8227 H       
  40 H40            3.5654    -1.3663     3.2893 H       
  41 H41            0.1403    -2.3991     4.0745 H       
  42 H42            1.2564    -1.0130     4.0215 H       
  43 H43           -0.2720    -0.9624     2.0812 H       
  44 H44            0.2505    -2.5991     1.6146 H       
  45 H45            1.6892    -2.4919     8.0610 H       
  46 H46            3.4844    -4.1294     8.4523 H       
  47 H47            4.6385    -5.1763     6.5480 H       
  48 H48            3.9974    -4.5937     4.2445 H       
@<TRIPOS>BOND
   1    1    2 2
   2    1   10 1
   3    1    6 1
   4    2    3 1
   5    2   16 1
   6    3    4 2
   7    3   30 1
   8    4    5 1
   9    4   31 1
  10    5    6 1
  11    5    7 1
  12    6    9 2
  13    7    8 2
  14    7   11 1
  15    8    9 1
  16    8   32 1
  17   11   12 1
  18   11   33 1
  19   11   34 1
  20   12   13 1
  21   12   14 1
  22   12   15 1
  23   16   17 1
  24   16   35 1
  25   16   36 1
  26   17   18 1
  27   17   22 1
  28   18   19 1
  29   18   37 1
  30   18   38 1
  31   19   20 1
  32   19   39 1
  33   19   40 1
  34   20   21 1
  35   20   23 1
  36   21   22 1
  37   21   41 1
  38   21   42 1
  39   22   43 1
  40   22   44 1
  41   23   24 ar
  42   23   28 ar
  43   24   25 ar
  44   24   29 1
  45   25   26 ar
  46   25   45 1
  47   26   27 ar
  48   26   46 1
  49   27   28 ar
  50   27   47 1
  51   28   48 1

#	End of record

