#	Name: ASD07930781
#	Creating user name:	WinNT
#	Creation time:	15. 06. 2019 21:13

#	Modifying user name:	WinNT
#	Modification time:	15. 06. 2019 21:13

#	Program:	/corina/corina34_cracker 3.40 0067  02.08.2006

@<TRIPOS>MOLECULE
ASD07930781
  46   48    0    0    0
SMALL
NO_CHARGES


@<TRIPOS>ATOM
   1 C1            -0.2765     1.5831    -0.0670 C.3     
   2 N2             0.5845    -0.2687    -2.2442 N.2     
   3 N3            -1.0278    -1.6990    -1.3409 N.pl3   
   4 C4            -0.9905    -2.7356    -0.3040 C.3     
   5 C5            -1.3040    -2.1007     1.0578 C.3     
   6 S6            -0.1146    -0.7532     1.3472 S.o2    
   7 N7            -0.1979     0.1203    -0.0694 N.am    
   8 C8            -0.1896    -0.6065    -1.2515 C.2     
   9 C9             0.4020    -3.3685    -0.2643 C.3     
  10 C10           -2.0169    -3.7946    -0.6139 C.ar    
  11 C11           -1.9339    -4.4972    -1.7973 C.ar    
  12 C12           -2.8894    -5.4754    -2.0732 C.ar    
  13 C13           -3.8940    -5.7012    -1.1326 C.ar    
  14 C14           -3.9062    -4.9548     0.0271 C.ar    
  15 N15           -2.9808    -4.0414     0.2536 N.ar    
  16 O16           -0.5946     0.1375     2.3451 O.2     
  17 O17            1.2151    -1.2529     1.3815 O.2     
  18 N18           -2.8416    -6.2071    -3.2571 N.pl3   
  19 C19           -3.2830    -7.5287    -3.2777 C.ar    
  20 C20           -3.3416    -8.2199    -4.4884 C.ar    
  21 C21           -3.7833    -9.5350    -4.4915 C.ar    
  22 C22           -4.1509   -10.1122    -3.2835 C.ar    
  23 C23           -4.0670    -9.3677    -2.1242 C.ar    
  24 N24           -3.6381    -8.1196    -2.1484 N.ar    
  25 O25           -2.9716    -7.6134    -5.6481 O.3     
  26 C26           -3.0611    -8.3906    -6.8439 C.3     
  27 H27            0.7299     2.0011    -0.0927 H       
  28 H28           -0.8317     1.9186    -0.9429 H       
  29 H29           -0.7860     1.9181     0.8365 H       
  30 H30            0.5773    -0.7882    -3.0634 H       
  31 H31           -1.6379    -1.7832    -2.0903 H       
  32 H32           -2.3180    -1.7009     1.0521 H       
  33 H33           -1.2084    -2.8503     1.8434 H       
  34 H34            1.1431    -2.6019    -0.0381 H       
  35 H35            0.4291    -4.1388     0.5065 H       
  36 H36            0.6256    -3.8156    -1.2328 H       
  37 H37           -1.1405    -4.2929    -2.5010 H       
  38 H38           -4.6521    -6.4497    -1.3100 H       
  39 H39           -4.6804    -5.1228     0.7611 H       
  40 H40           -2.5011    -5.7969    -4.0674 H       
  41 H41           -3.8403   -10.0966    -5.4122 H       
  42 H42           -4.4994   -11.1339    -3.2512 H       
  43 H43           -4.3526    -9.8141    -1.1831 H       
  44 H44           -2.7373    -7.7890    -7.6933 H       
  45 H45           -2.4212    -9.2685    -6.7555 H       
  46 H46           -4.0932    -8.7070    -6.9952 H       
@<TRIPOS>BOND
   1    1    7 1
   2    1   27 1
   3    1   28 1
   4    1   29 1
   5    2    8 2
   6    2   30 1
   7    3    4 1
   8    3    8 1
   9    3   31 1
  10    4    5 1
  11    4    9 1
  12    4   10 1
  13    5    6 1
  14    5   32 1
  15    5   33 1
  16    6    7 am
  17    6   16 2
  18    6   17 2
  19    7    8 1
  20    9   34 1
  21    9   35 1
  22    9   36 1
  23   10   11 ar
  24   10   15 ar
  25   11   12 ar
  26   11   37 1
  27   12   13 ar
  28   12   18 1
  29   13   14 ar
  30   13   38 1
  31   14   15 ar
  32   14   39 1
  33   18   19 1
  34   18   40 1
  35   19   20 ar
  36   19   24 ar
  37   20   21 ar
  38   20   25 1
  39   21   22 ar
  40   21   41 1
  41   22   23 ar
  42   22   42 1
  43   23   24 ar
  44   23   43 1
  45   25   26 1
  46   26   44 1
  47   26   45 1
  48   26   46 1

#	End of record

