#	Name: ASD02560038
#	Creating user name:	WinNT
#	Creation time:	15. 06. 2019 20:24

#	Modifying user name:	WinNT
#	Modification time:	15. 06. 2019 20:24

#	Program:	/corina/corina34_cracker 3.40 0067  02.08.2006

@<TRIPOS>MOLECULE
ASD02560038
  36   39    0    0    0
SMALL
NO_CHARGES


@<TRIPOS>ATOM
   1 C1            -0.0135     1.3866     0.0067 C.ar    
   2 C2             0.0045    -0.0001    -0.0034 C.ar    
   3 C3             1.2797    -0.5855    -0.0152 C.ar    
   4 C4             2.4419     0.2014    -0.0132 C.ar    
   5 N5             2.3590     1.5491    -0.0083 N.ar    
   6 C6             1.1687     2.1097     0.0028 C.ar    
   7 S7             1.6903    -2.2823    -0.0344 S.3     
   8 C8             3.4129    -1.9439    -0.0507 C.2     
   9 C9             3.6516    -0.5935    -0.0083 C.2     
  10 C10            4.4772    -2.9502    -0.1408 C.2     
  11 N11            5.6561    -2.8210     0.4538 N.am    
  12 C12            6.0579    -1.8260     1.3383 C.ar    
  13 C13            5.7464    -0.4791     1.1613 C.ar    
  14 N14            4.9489    -0.0569     0.0972 N.pl3   
  15 C15            6.8098    -2.1932     2.4525 C.ar    
  16 C16            7.2380    -1.2054     3.3276 C.ar    
  17 C17            6.9122     0.1102     3.0723 C.ar    
  18 N18            6.1902     0.4326     2.0162 N.ar    
  19 C19            5.4459     0.9150    -0.8799 C.3     
  20 C20            6.1309     0.1760    -2.0312 C.3     
  21 C21            6.6526    -3.8486     0.1421 C.3     
  22 S22            4.1825    -4.3634    -1.0612 S.2     
  23 H23           -0.9590     1.9086     0.0132 H       
  24 H24           -0.9008    -0.5890    -0.0019 H       
  25 H25            1.1100     3.1881     0.0094 H       
  26 H26            7.0548    -3.2296     2.6321 H       
  27 H27            7.8199    -1.4641     4.1999 H       
  28 H28            7.2514     0.8847     3.7442 H       
  29 H29            4.6115     1.4989    -1.2683 H       
  30 H30            6.1621     1.5807    -0.3982 H       
  31 H31            6.5007     0.8991    -2.7582 H       
  32 H32            6.9653    -0.4079    -1.6428 H       
  33 H33            5.4147    -0.4897    -2.5129 H       
  34 H34            6.7866    -3.9090    -0.9380 H       
  35 H35            7.6014    -3.5891     0.6119 H       
  36 H36            6.3114    -4.8122     0.5203 H       
@<TRIPOS>BOND
   1    1    2 ar
   2    1    6 ar
   3    1   23 1
   4    2    3 ar
   5    2   24 1
   6    3    4 ar
   7    3    7 1
   8    4    5 ar
   9    4    9 1
  10    5    6 ar
  11    6   25 1
  12    7    8 1
  13    8    9 2
  14    8   10 1
  15    9   14 1
  16   10   11 am
  17   10   22 2
  18   11   12 1
  19   11   21 1
  20   12   13 ar
  21   12   15 ar
  22   13   14 1
  23   13   18 ar
  24   14   19 1
  25   15   16 ar
  26   15   26 1
  27   16   17 ar
  28   16   27 1
  29   17   18 ar
  30   17   28 1
  31   19   20 1
  32   19   29 1
  33   19   30 1
  34   20   31 1
  35   20   32 1
  36   20   33 1
  37   21   34 1
  38   21   35 1
  39   21   36 1

#	End of record

