#	Name: ASD01840101
#	Creating user name:	WinNT
#	Creation time:	15. 06. 2019 19:37

#	Modifying user name:	WinNT
#	Modification time:	15. 06. 2019 19:37

#	Program:	/corina/corina34_cracker 3.40 0067  02.08.2006

@<TRIPOS>MOLECULE
ASD01840101
  44   47    0    0    0
SMALL
NO_CHARGES


@<TRIPOS>ATOM
   1 C1             0.0770     1.4944     0.1196 C.ar    
   2 N2             0.2697     0.4763     0.9446 N.ar    
   3 C3             1.4189    -0.1747     0.9710 C.ar    
   4 N4             2.4232     0.1476     0.1896 N.ar    
   5 C5             1.1304     1.8846    -0.7471 C.ar    
   6 C6             1.1926     2.9456    -1.7346 C.2     
   7 C7             2.3246     1.1626    -0.6785 C.ar    
   8 S8             3.4774     1.8181    -1.8319 S.3     
   9 C9             2.3407     3.0369    -2.3772 C.2     
  10 C10            0.0348     3.8715    -2.0054 C.3     
  11 C11            2.6376     4.0580    -3.4450 C.3     
  12 N12           -1.1338     2.1629     0.0993 N.3     
  13 C13           -2.2271     1.2601    -0.2828 C.3     
  14 C14           -3.5220     2.0612    -0.4363 C.3     
  15 C15           -3.8475     2.7547     0.8894 C.3     
  16 C16           -2.6728     3.6517     1.2891 C.3     
  17 C17           -1.4025     2.8045     1.3926 C.3     
  18 O18           -5.0249     3.5498     0.7359 O.3     
  19 C19           -5.7528     3.7975     1.8569 C.ar    
  20 C20           -6.0666     3.6619     4.2171 C.ar    
  21 C21           -5.2904     3.3868     3.1030 C.ar    
  22 C22           -6.9640     4.4682     1.7748 C.ar    
  23 N23           -7.6737     4.7114     2.8590 N.ar    
  24 C24           -7.2667     4.3313     4.0553 C.ar    
  25 Cl25          -8.2468     4.6810     5.4449 Cl      
  26 H26            1.5362    -0.9993     1.6586 H       
  27 H27            0.0667     4.7072    -1.3065 H       
  28 H28            0.1021     4.2485    -3.0259 H       
  29 H29           -0.9019     3.3283    -1.8798 H       
  30 H30            3.0589     4.9522    -2.9856 H       
  31 H31            3.3525     3.6433    -4.1556 H       
  32 H32            1.7160     4.3172    -3.9662 H       
  33 H33           -1.9848     0.7766    -1.2292 H       
  34 H34           -2.3585     0.5018     0.4890 H       
  35 H35           -3.3958     2.8106    -1.2177 H       
  36 H36           -4.3365     1.3884    -0.7047 H       
  37 H37           -4.0121     2.0040     1.6624 H       
  38 H38           -2.5332     4.4262     0.5350 H       
  39 H39           -2.8805     4.1153     2.2535 H       
  40 H40           -1.5378     2.0389     2.1566 H       
  41 H41           -0.5613     3.4427     1.6631 H       
  42 H42           -5.7387     3.3579     5.2002 H       
  43 H43           -4.3494     2.8657     3.1996 H       
  44 H44           -7.3295     4.7952     0.8125 H       
@<TRIPOS>BOND
   1    1    2 ar
   2    1    5 ar
   3    1   12 1
   4    2    3 ar
   5    3    4 ar
   6    3   26 1
   7    4    7 ar
   8    5    7 ar
   9    5    6 1
  10    6    9 2
  11    6   10 1
  12    7    8 1
  13    8    9 1
  14    9   11 1
  15   10   27 1
  16   10   28 1
  17   10   29 1
  18   11   30 1
  19   11   31 1
  20   11   32 1
  21   12   13 1
  22   12   17 1
  23   13   14 1
  24   13   33 1
  25   13   34 1
  26   14   15 1
  27   14   35 1
  28   14   36 1
  29   15   16 1
  30   15   18 1
  31   15   37 1
  32   16   17 1
  33   16   38 1
  34   16   39 1
  35   17   40 1
  36   17   41 1
  37   18   19 1
  38   19   22 ar
  39   19   21 ar
  40   20   21 ar
  41   20   24 ar
  42   20   42 1
  43   21   43 1
  44   22   23 ar
  45   22   44 1
  46   23   24 ar
  47   24   25 1

#	End of record

