#	Name: ASD02560154
#	Creating user name:	WinNT
#	Creation time:	15. 06. 2019 20:24

#	Modifying user name:	WinNT
#	Modification time:	15. 06. 2019 20:24

#	Program:	/corina/corina34_cracker 3.40 0067  02.08.2006

@<TRIPOS>MOLECULE
ASD02560154
  74   77    0    0    0
SMALL
NO_CHARGES


@<TRIPOS>ATOM
   1 N1             1.3830     1.8877     0.7645 N.2     
   2 N2             1.7798     0.7366     0.5579 N.2     
   3 C3             2.5026     2.7901     1.0629 C.3     
   4 N4             3.6373     1.8900     1.3900 N.3     
   5 C5             3.2409     0.6486     0.6785 C.3     
   6 S6             3.7078    -0.8118     1.6480 S.3     
   7 C7             2.7894    -0.5847     3.1958 C.3     
   8 C8             3.0765    -1.7368     4.1239 C.2     
   9 O9             3.8268    -2.6238     3.7755 O.2     
  10 N10            2.4995    -1.7815     5.3411 N.am    
  11 C11            4.8380     2.3945     0.8854 C.ar    
  12 C12            2.6887    -2.8974     6.1647 C.ar    
  13 C13            1.6638    -3.3297     6.9983 C.ar    
  14 C14            1.8542    -4.4320     7.8096 C.ar    
  15 C15            3.0626    -5.1043     7.7924 C.ar    
  16 C16            4.0836    -4.6765     6.9642 C.ar    
  17 C17            3.8982    -3.5783     6.1466 C.ar    
  18 Cl18           0.1470    -2.4855     7.0205 Cl      
  19 S19            3.3017    -6.5091     8.8288 S.o2    
  20 O20            4.7044    -6.6326     9.0199 O.2     
  21 O21            2.3797    -6.3776     9.9020 O.2     
  22 C22            5.4583     3.4721     1.5187 C.ar    
  23 C23            5.4096     1.8180    -0.2387 C.ar    
  24 C24            6.5969     2.3183    -0.7353 C.ar    
  25 C25            7.2079     3.3859    -0.1092 C.ar    
  26 C26            6.6438     3.9624     1.0220 C.ar    
  27 C27            7.3742     5.1155     1.6594 C.3     
  28 C28            6.4428     5.8957     2.5849 C.3     
  29 C29            5.7663     4.9038     3.5384 C.3     
  30 C30            4.7820     4.0581     2.7302 C.3     
  31 N31            2.8283    -7.8410     7.9661 N.am    
  32 C32            3.5755    -8.2441     6.7722 C.3     
  33 C33            4.2150    -9.6137     7.0091 C.3     
  34 C34            5.1281    -9.5451     8.2348 C.3     
  35 C35            3.1188   -10.6541     7.2474 C.3     
  36 C36            8.5039     3.9280    -0.6548 C.3     
  37 C37            2.6372    -8.3245     5.5957 C.2     
  38 O38            1.4647    -8.0711     5.7397 O.2     
  39 O39            3.1042    -8.6777     4.3878 O.3     
  40 C40            2.8373     3.6464    -0.1600 C.3     
  41 F41            1.6838     4.3067    -0.5967 F       
  42 F42            3.8123     4.5891     0.1835 F       
  43 H43            2.2623     3.4236     1.9168 H       
  44 H44            3.7018     0.6132    -0.3086 H       
  45 H45            3.0982     0.3479     3.6680 H       
  46 H46            1.7212    -0.5476     2.9823 H       
  47 H47            1.9531    -1.0405     5.6463 H       
  48 H48            1.0587    -4.7685     8.4580 H       
  49 H49            5.0261    -5.2037     6.9536 H       
  50 H50            4.6964    -3.2449     5.5001 H       
  51 H51            4.9285     0.9812    -0.7233 H       
  52 H52            7.0467     1.8751    -1.6114 H       
  53 H53            8.2162     4.7329     2.2362 H       
  54 H54            7.7459     5.7805     0.8798 H       
  55 H55            7.0190     6.6216     3.1586 H       
  56 H56            5.6859     6.4115     1.9941 H       
  57 H57            6.5193     4.2613     3.9946 H       
  58 H58            5.2291     5.4490     4.3146 H       
  59 H59            3.9480     4.6835     2.4116 H       
  60 H60            4.4052     3.2490     3.3559 H       
  61 H61            2.0562    -8.3543     8.2513 H       
  62 H62            4.3545    -7.5101     6.5662 H       
  63 H63            4.8011    -9.8971     6.1349 H       
  64 H64            5.6514   -10.4941     8.3517 H       
  65 H65            5.8548    -8.7435     8.1022 H       
  66 H66            4.5288    -9.3487     9.1238 H       
  67 H67            2.4683   -10.7030     6.3742 H       
  68 H68            3.5744   -11.6298     7.4161 H       
  69 H69            2.5327   -10.3706     8.1216 H       
  70 H70            8.2922     4.7095    -1.3846 H       
  71 H71            9.0961     4.3432     0.1607 H       
  72 H72            9.0607     3.1234    -1.1352 H       
  73 H73            2.4644    -8.7154     3.6637 H       
  74 H74            3.2147     3.0077    -0.9585 H       
@<TRIPOS>BOND
   1    1    2 2
   2    1    3 1
   3    2    5 1
   4    3    4 1
   5    3   40 1
   6    3   43 1
   7    4    5 1
   8    4   11 1
   9    5    6 1
  10    5   44 1
  11    6    7 1
  12    7    8 1
  13    7   45 1
  14    7   46 1
  15    8    9 2
  16    8   10 am
  17   10   12 1
  18   10   47 1
  19   11   22 ar
  20   11   23 ar
  21   12   13 ar
  22   12   17 ar
  23   13   14 ar
  24   13   18 1
  25   14   15 ar
  26   14   48 1
  27   15   16 ar
  28   15   19 1
  29   16   17 ar
  30   16   49 1
  31   17   50 1
  32   19   20 2
  33   19   21 2
  34   19   31 am
  35   22   26 ar
  36   22   30 1
  37   23   24 ar
  38   23   51 1
  39   24   25 ar
  40   24   52 1
  41   25   26 ar
  42   25   36 1
  43   26   27 1
  44   27   28 1
  45   27   53 1
  46   27   54 1
  47   28   29 1
  48   28   55 1
  49   28   56 1
  50   29   30 1
  51   29   57 1
  52   29   58 1
  53   30   59 1
  54   30   60 1
  55   31   32 1
  56   31   61 1
  57   32   33 1
  58   32   37 1
  59   32   62 1
  60   33   34 1
  61   33   35 1
  62   33   63 1
  63   34   64 1
  64   34   65 1
  65   34   66 1
  66   35   67 1
  67   35   68 1
  68   35   69 1
  69   36   70 1
  70   36   71 1
  71   36   72 1
  72   37   38 2
  73   37   39 1
  74   39   73 1
  75   40   41 1
  76   40   42 1
  77   40   74 1

#	End of record

