#	Name: ASD08150937
#	Creating user name:	WinNT
#	Creation time:	15. 06. 2019 21:16

#	Modifying user name:	WinNT
#	Modification time:	15. 06. 2019 21:16

#	Program:	/corina/corina34_cracker 3.40 0067  02.08.2006

@<TRIPOS>MOLECULE
ASD08150937
  55   59    0    0    0
SMALL
NO_CHARGES


@<TRIPOS>ATOM
   1 C1            -0.1708     2.2009    -0.5561 C.3     
   2 O2            -0.3057     0.7849    -0.6939 O.3     
   3 N3             3.4343     3.8625     1.0286 N.3     
   4 C4             2.9429     4.4408    -0.2286 C.3     
   5 C5             1.4656     4.0857    -0.4119 C.3     
   6 C6             1.3109     2.5625    -0.4342 C.3     
   7 C7             1.8742     1.9810     0.8655 C.3     
   8 C8             3.3396     2.3972     1.0118 C.3     
   9 N9             5.5347     3.3000    -0.7423 N.ar    
  10 C10            6.4937     3.0210    -1.5914 C.ar    
  11 C11            7.8106     3.4153    -1.3645 C.ar    
  12 C12            8.1281     4.1117    -0.2334 C.ar    
  13 C13            7.0951     4.4095     0.6755 C.ar    
  14 C14            7.3476     5.1227     1.8594 C.ar    
  15 C15            6.3256     5.3958     2.7188 C.ar    
  16 C16            5.0272     4.9781     2.4428 C.ar    
  17 C17            4.7405     4.2761     1.2923 C.ar    
  18 C18            5.7783     3.9779     0.3825 C.ar    
  19 C19            3.9207     5.2966     3.4151 C.3     
  20 C20            3.7612     4.1393     4.4031 C.3     
  21 N21            4.2516     6.5217     4.1472 N.pl3   
  22 N22            4.6829     9.1328     5.7114 N.2     
  23 C23            4.3909    10.2178     6.3680 C.2     
  24 N24            3.0380    10.3519     6.4677 N.pl3   
  25 C25            2.4701     9.2782     5.8299 C.ar    
  26 N26            1.2251     8.8724     5.6029 N.ar    
  27 C27            0.9927     7.7607     4.9371 C.ar    
  28 N28            1.9641     6.9999     4.4668 N.ar    
  29 C29            3.2404     7.3250     4.6445 C.ar    
  30 C30            3.5393     8.5035     5.3490 C.ar    
  31 Cl31           8.9586     5.6546     2.2272 Cl      
  32 H32           -0.5940     2.6931    -1.4317 H       
  33 H33           -0.7001     2.5310     0.3377 H       
  34 H34           -1.2207     0.4832    -0.7765 H       
  35 H35            3.0548     5.5246    -0.1979 H       
  36 H36            3.5190     4.0398    -1.0625 H       
  37 H37            0.8869     4.4982     0.4146 H       
  38 H38            1.1053     4.5019    -1.3526 H       
  39 H39            1.8569     2.1533    -1.2842 H       
  40 H40            1.3019     2.3605     1.7120 H       
  41 H41            1.8058     0.8935     0.8373 H       
  42 H42            3.9139     2.0057     0.1721 H       
  43 H43            3.7396     1.9966     1.9433 H       
  44 H44            6.2568     2.4708    -2.4901 H       
  45 H45            8.5796     3.1701    -2.0822 H       
  46 H46            9.1437     4.4249    -0.0413 H       
  47 H47            6.5264     5.9445     3.6272 H       
  48 H48            2.9879     5.4400     2.8697 H       
  49 H49            4.6940     3.9960     4.9484 H       
  50 H50            2.9609     4.3697     5.1063 H       
  51 H51            3.5150     3.2279     3.8584 H       
  52 H52            5.1794     6.7697     4.2834 H       
  53 H53            5.1138    10.9095     6.7746 H       
  54 H54            2.5638    11.0740     6.9089 H       
  55 H55           -0.0308     7.4594     4.7699 H       
@<TRIPOS>BOND
   1    1    2 1
   2    1    6 1
   3    1   32 1
   4    1   33 1
   5    2   34 1
   6    3    4 1
   7    3    8 1
   8    3   17 1
   9    4    5 1
  10    4   35 1
  11    4   36 1
  12    5    6 1
  13    5   37 1
  14    5   38 1
  15    6    7 1
  16    6   39 1
  17    7    8 1
  18    7   40 1
  19    7   41 1
  20    8   42 1
  21    8   43 1
  22    9   10 ar
  23    9   18 ar
  24   10   11 ar
  25   10   44 1
  26   11   12 ar
  27   11   45 1
  28   12   13 ar
  29   12   46 1
  30   13   14 ar
  31   13   18 ar
  32   14   15 ar
  33   14   31 1
  34   15   16 ar
  35   15   47 1
  36   16   17 ar
  37   16   19 1
  38   17   18 ar
  39   19   20 1
  40   19   21 1
  41   19   48 1
  42   20   49 1
  43   20   50 1
  44   20   51 1
  45   21   29 1
  46   21   52 1
  47   22   23 2
  48   22   30 1
  49   23   24 1
  50   23   53 1
  51   24   25 1
  52   24   54 1
  53   25   26 ar
  54   25   30 ar
  55   26   27 ar
  56   27   28 ar
  57   27   55 1
  58   28   29 ar
  59   29   30 ar

#	End of record

