#	Name: ASD05720153
#	Creating user name:	WinNT
#	Creation time:	15. 06. 2019 21:01

#	Modifying user name:	WinNT
#	Modification time:	15. 06. 2019 21:01

#	Program:	/corina/corina34_cracker 3.40 0067  02.08.2006

@<TRIPOS>MOLECULE
ASD05720153
  62   66    0    0    0
SMALL
NO_CHARGES


@<TRIPOS>ATOM
   1 N1             0.5985     0.3404     1.2471 N.am    
   2 C2             1.9410     0.9361     1.3259 C.3     
   3 C3             2.8642     0.1850     0.3605 C.3     
   4 N4             2.2648     0.1795    -0.9806 N.3     
   5 C5             0.9874    -0.5459    -0.9904 C.3     
   6 C6            -0.0127     0.1752    -0.0804 C.3     
   7 C7            -0.0520    -0.0488     2.3615 C.2     
   8 O8             0.4701     0.0906     3.4498 O.2     
   9 O9            -1.2804    -0.5921     2.2688 O.3     
  10 C10            3.1494    -0.3518    -1.9220 C.ar    
  11 C11            3.6445     0.4505    -2.9425 C.ar    
  12 C12            4.5192    -0.0778    -3.8712 C.ar    
  13 C13            4.9021    -1.4041    -3.7866 C.ar    
  14 C14            4.4112    -2.2053    -2.7723 C.ar    
  15 C15            3.5404    -1.6818    -1.8367 C.ar    
  16 O16            2.4522     2.8964    -5.0314 O.3     
  17 C17            3.7360     3.2160    -4.8338 C.2     
  18 N18            4.2605     2.6887    -3.7191 N.am    
  19 C19            3.2271     1.8955    -3.0360 C.3     
  20 C20            1.9907     2.0441    -3.9435 C.3     
  21 O21            4.3689     3.9196    -5.5958 O.2     
  22 C22            7.2253     2.4459    -1.7257 C.2     
  23 N23            5.9679     2.2893    -2.1629 N.2     
  24 C24            5.5673     2.8621    -3.2806 C.2     
  25 C25            6.4634     3.6504    -4.0324 C.2     
  26 C26            7.7326     3.8115    -3.5959 C.2     
  27 N27            8.1210     3.2059    -2.4332 N.pl3   
  28 N28            9.3366     3.1847    -1.7395 N.2     
  29 C29            9.1965     2.4493    -0.6599 C.2     
  30 C30            7.8949     1.9714    -0.6052 C.2     
  31 Br31           7.1655     0.8705     0.7483 Br      
  32 C32           -1.9214    -0.9881     3.5100 C.3     
  33 C33           -2.0802     0.2353     4.4149 C.3     
  34 C34           -3.2992    -1.5800     3.2062 C.3     
  35 C35           -1.0603    -2.0369     4.2167 C.3     
  36 H36            1.8923     1.9875     1.0425 H       
  37 H37            2.3227     0.8454     2.3428 H       
  38 H38            3.8336     0.6820     0.3236 H       
  39 H39            2.9938    -0.8409     0.7053 H       
  40 H40            0.5958    -0.5791    -2.0071 H       
  41 H41            1.1432    -1.5617    -0.6268 H       
  42 H42           -0.9225    -0.4187     0.0067 H       
  43 H43           -0.2492     1.1534    -0.4990 H       
  44 H44            4.9045     0.5453    -4.6647 H       
  45 H45            5.5858    -1.8150    -4.5147 H       
  46 H46            4.7122    -3.2406    -2.7092 H       
  47 H47            3.1608    -2.3070    -1.0421 H       
  48 H48            3.0274     2.3002    -2.0438 H       
  49 H49            1.1749     2.5234    -3.4024 H       
  50 H50            1.6782     1.0723    -4.3257 H       
  51 H51            6.1386     4.1207    -4.9487 H       
  52 H52            8.4320     4.4114    -4.1593 H       
  53 H53            9.9684     2.2521     0.0694 H       
  54 H54           -2.6937     0.9825     3.9115 H       
  55 H55           -2.5614    -0.0620     5.3467 H       
  56 H56           -1.0986     0.6570     4.6314 H       
  57 H57           -3.1861    -2.4515     2.5615 H       
  58 H58           -3.7804    -1.8773     4.1380 H       
  59 H59           -3.9127    -0.8328     2.7027 H       
  60 H60           -0.0788    -1.6152     4.4331 H       
  61 H61           -1.5416    -2.3342     5.1484 H       
  62 H62           -0.9472    -2.9085     3.5720 H       
@<TRIPOS>BOND
   1    1    2 1
   2    1    6 1
   3    1    7 am
   4    2    3 1
   5    2   36 1
   6    2   37 1
   7    3    4 1
   8    3   38 1
   9    3   39 1
  10    4    5 1
  11    4   10 1
  12    5    6 1
  13    5   40 1
  14    5   41 1
  15    6   42 1
  16    6   43 1
  17    7    8 2
  18    7    9 1
  19    9   32 1
  20   10   11 ar
  21   10   15 ar
  22   11   12 ar
  23   11   19 1
  24   12   13 ar
  25   12   44 1
  26   13   14 ar
  27   13   45 1
  28   14   15 ar
  29   14   46 1
  30   15   47 1
  31   16   17 1
  32   16   20 1
  33   17   18 am
  34   17   21 2
  35   18   19 1
  36   18   24 1
  37   19   20 1
  38   19   48 1
  39   20   49 1
  40   20   50 1
  41   22   23 1
  42   22   27 1
  43   22   30 2
  44   23   24 2
  45   24   25 1
  46   25   26 2
  47   25   51 1
  48   26   27 1
  49   26   52 1
  50   27   28 1
  51   28   29 2
  52   29   30 1
  53   29   53 1
  54   30   31 1
  55   32   33 1
  56   32   35 1
  57   32   34 1
  58   33   54 1
  59   33   55 1
  60   33   56 1
  61   34   57 1
  62   34   58 1
  63   34   59 1
  64   35   60 1
  65   35   61 1
  66   35   62 1

#	End of record

