#	Name: ASD01230733
#	Creating user name:	WinNT
#	Creation time:	15. 06. 2019 19:14

#	Modifying user name:	WinNT
#	Modification time:	15. 06. 2019 19:14

#	Program:	/corina/corina34_cracker 3.40 0067  02.08.2006

@<TRIPOS>MOLECULE
ASD01230733
  43   46    0    0    0
SMALL
NO_CHARGES


@<TRIPOS>ATOM
   1 C1            -0.0178     1.4648     0.0101 C.3     
   2 N2             0.0021    -0.0041     0.0020 N.3     
   3 C3            -1.3278    -0.6039    -0.0361 C.3     
   4 C4            -2.3918     0.2627     0.6247 C.3     
   5 N5            -1.7994     1.1280     1.6490 N.pl3   
   6 C6            -0.7247     1.8974     1.2833 C.2     
   7 C7            -2.3167     1.1354     3.0136 C.3     
   8 C8            -2.5892     2.5753     3.4512 C.3     
   9 S9            -1.0859     3.5639     3.2358 S.o2    
  10 N10           -0.3344     2.9350     1.9119 N.am    
  11 C11            1.3919     1.9972    -0.0005 C.ar    
  12 C12            1.7042     3.1041    -0.7685 C.ar    
  13 O13           -1.4162     4.8909     2.8496 O.2     
  14 O14           -0.1759     3.3207     4.2997 O.2     
  15 C15            2.3669     1.3802     0.7623 C.ar    
  16 C16            3.6602     1.8629     0.7577 C.ar    
  17 C17            3.9840     2.9739    -0.0176 C.ar    
  18 C18            2.9959     3.5965    -0.7818 C.ar    
  19 C19            5.3723     3.4972    -0.0260 C.ar    
  20 C20            6.0189     3.7451    -1.2352 C.ar    
  21 C21            6.0323     3.7480     1.1754 C.ar    
  22 C22            7.3236     4.2353     1.1617 C.ar    
  23 C23            7.9625     4.4746    -0.0416 C.ar    
  24 C24            7.3102     4.2324    -1.2371 C.ar    
  25 F25            3.3021     4.6743    -1.5367 F       
  26 H26           -0.5602     1.8334    -0.8606 H       
  27 H27            0.5782    -0.3538    -0.7489 H       
  28 H28           -1.6076    -0.7707    -1.0763 H       
  29 H29           -1.2931    -1.5666     0.4739 H       
  30 H30           -2.8715     0.8817    -0.1335 H       
  31 H31           -3.1405    -0.3799     1.0878 H       
  32 H32           -3.2430     0.5624     3.0536 H       
  33 H33           -1.5829     0.6855     3.6823 H       
  34 H34           -3.3905     2.9947     2.8428 H       
  35 H35           -2.8847     2.5867     4.5003 H       
  36 H36            0.9380     3.5843    -1.3590 H       
  37 H37            2.1156     0.5189     1.3633 H       
  38 H38            4.4197     1.3800     1.3546 H       
  39 H39            5.5107     3.5560    -2.1692 H       
  40 H40            5.5343     3.5619     2.1154 H       
  41 H41            7.8359     4.4304     2.0922 H       
  42 H42            8.9728     4.8562    -0.0477 H       
  43 H43            7.8137     4.4210    -2.1737 H       
@<TRIPOS>BOND
   1    1    2 1
   2    1   11 1
   3    1   26 1
   4    1    6 1
   5    2    3 1
   6    2   27 1
   7    3    4 1
   8    3   28 1
   9    3   29 1
  10    4    5 1
  11    4   30 1
  12    4   31 1
  13    5    6 1
  14    5    7 1
  15    6   10 2
  16    7    8 1
  17    7   32 1
  18    7   33 1
  19    8    9 1
  20    8   34 1
  21    8   35 1
  22    9   10 am
  23    9   13 2
  24    9   14 2
  25   11   12 ar
  26   11   15 ar
  27   12   18 ar
  28   12   36 1
  29   15   16 ar
  30   15   37 1
  31   16   17 ar
  32   16   38 1
  33   17   18 ar
  34   17   19 1
  35   18   25 1
  36   19   20 ar
  37   19   21 ar
  38   20   24 ar
  39   20   39 1
  40   21   22 ar
  41   21   40 1
  42   22   23 ar
  43   22   41 1
  44   23   24 ar
  45   23   42 1
  46   24   43 1

#	End of record

