#	Name: ASD02030797
#	Creating user name:	WinNT
#	Creation time:	15. 06. 2019 20:16

#	Modifying user name:	WinNT
#	Modification time:	15. 06. 2019 20:16

#	Program:	/corina/corina34_cracker 3.40 0067  02.08.2006

@<TRIPOS>MOLECULE
ASD02030797
  83   86    0    0    0
SMALL
NO_CHARGES


@<TRIPOS>ATOM
   1 H1            -0.2261     0.2513    -0.3799 H       
   2 C2            -0.0639     1.3171    -0.2191 C.3     
   3 C3            -0.3844     2.1097    -1.5110 C.3     
   4 C4             0.9530     2.7476    -1.9766 C.3     
   5 C5             2.0076     1.8318    -1.3459 C.3     
   6 H6             2.0747     0.8938    -1.8971 H       
   7 C7             3.3813     2.4435    -1.1465 C.3     
   8 H8             3.3009     3.3331    -0.5220 H       
   9 C9             4.0102     2.7917    -2.4963 C.3     
  10 C10            5.4111     3.3650    -2.2716 C.3     
  11 C11            6.2799     2.3265    -1.5594 C.3     
  12 H12            7.2763     2.7371    -1.3962 H       
  13 C13            6.3826     1.0687    -2.4245 C.3     
  14 C14            7.2538     0.0310    -1.7139 C.3     
  15 O15            8.5596     0.5708    -1.5009 O.3     
  16 C16            7.3567    -1.2269    -2.5788 C.3     
  17 C17            8.1226    -2.3094    -1.8157 C.3     
  18 C18            6.6240    -0.3270    -0.3663 C.3     
  19 C19            6.5205     0.9308     0.4987 C.3     
  20 C20            5.6491     1.9682    -0.2121 C.3     
  21 C21            5.5456     3.2259     0.6530 C.3     
  22 C22            4.2517     1.3914    -0.4415 C.3     
  23 H23            4.3334     0.5139    -1.0829 H       
  24 C24            3.6409     0.9587     0.8870 C.3     
  25 C25            2.1962     0.4633     0.7057 C.3     
  26 C26            1.4091     1.5903     0.0665 C.3     
  27 C27            1.5457     2.8595     0.9100 C.3     
  28 C28           -0.9299     1.8154     0.9396 C.3     
  29 H29           -0.7951     2.8905     1.0577 H       
  30 C30           -0.5146     1.1045     2.2292 C.3     
  31 C31           -2.4006     1.5153     0.6428 C.3     
  32 H32           -2.5354     0.4402     0.5247 H       
  33 O33           -2.7886     2.1793    -0.5616 O.3     
  34 C34           -3.2666     2.0136     1.8015 C.3     
  35 C35           -4.7214     1.6037     1.5639 C.3     
  36 C36           -5.5874     2.1020     2.7226 C.3     
  37 C37           -5.5946     3.6319     2.7328 C.3     
  38 C38           -7.0175     1.5865     2.5489 C.3     
  39 H39           -0.7649     1.4359    -2.2787 H       
  40 H40           -1.1170     2.8888    -1.2999 H       
  41 H41            1.0295     2.7325    -3.0638 H       
  42 H42            1.0482     3.7646    -1.5963 H       
  43 H43            4.0793     1.8923    -3.1081 H       
  44 H44            3.3921     3.5313    -3.0054 H       
  45 H45            5.8594     3.6158    -3.2330 H       
  46 H46            5.3418     4.2631    -1.6579 H       
  47 H47            5.3865     0.6570    -2.5869 H       
  48 H48            6.8314     1.3237    -3.3846 H       
  49 H49            9.1672    -0.0342    -1.0537 H       
  50 H50            6.3558    -1.5881    -2.8153 H       
  51 H51            7.8852    -0.9905    -3.5024 H       
  52 H52            9.1234    -1.9481    -1.5793 H       
  53 H53            7.5941    -2.5458    -0.8922 H       
  54 H54            8.1959    -3.2055    -2.4319 H       
  55 H55            5.6281    -0.7392    -0.5287 H       
  56 H56            7.2449    -1.0661     0.1401 H       
  57 H57            6.0717     0.6757     1.4587 H       
  58 H58            7.5164     1.3428     0.6613 H       
  59 H59            4.9252     3.9653     0.1465 H       
  60 H60            5.0963     2.9708     1.6128 H       
  61 H61            6.5415     3.6378     0.8161 H       
  62 H62            4.2428     0.1550     1.3112 H       
  63 H63            3.6440     1.8054     1.5735 H       
  64 H64            2.1833    -0.4124     0.0568 H       
  65 H65            1.7655     0.2137     1.6753 H       
  66 H66            1.1037     2.6922     1.8922 H       
  67 H67            2.6008     3.1082     1.0240 H       
  68 H68            1.0299     3.6821     0.4148 H       
  69 H69            0.5583     1.2239     2.3805 H       
  70 H70           -1.0510     1.5391     3.0726 H       
  71 H71           -0.7550     0.0441     2.1531 H       
  72 H72           -2.6947     3.1411    -0.5283 H       
  73 H73           -2.9131     1.5744     2.7344 H       
  74 H74           -3.2007     3.0999     1.8634 H       
  75 H75           -5.0749     2.0429     0.6311 H       
  76 H76           -4.7873     0.5174     1.5020 H       
  77 H77           -5.1806     1.7343     3.6646 H       
  78 H78           -6.2115     3.9869     3.5583 H       
  79 H79           -4.5758     3.9992     2.8566 H       
  80 H80           -6.0014     3.9996     1.7908 H       
  81 H81           -7.0124     0.4965     2.5417 H       
  82 H82           -7.6344     1.9415     3.3744 H       
  83 H83           -7.4243     1.9542     1.6070 H       
@<TRIPOS>BOND
   1    1    2 1
   2    2   26 1
   3    2    3 1
   4    2   28 1
   5    3    4 1
   6    3   39 1
   7    3   40 1
   8    4    5 1
   9    4   41 1
  10    4   42 1
  11    5   26 1
  12    5    6 1
  13    5    7 1
  14    7   22 1
  15    7    8 1
  16    7    9 1
  17    9   10 1
  18    9   43 1
  19    9   44 1
  20   10   11 1
  21   10   45 1
  22   10   46 1
  23   11   20 1
  24   11   12 1
  25   11   13 1
  26   13   14 1
  27   13   47 1
  28   13   48 1
  29   14   15 1
  30   14   16 1
  31   14   18 1
  32   15   49 1
  33   16   17 1
  34   16   50 1
  35   16   51 1
  36   17   52 1
  37   17   53 1
  38   17   54 1
  39   18   19 1
  40   18   55 1
  41   18   56 1
  42   19   20 1
  43   19   57 1
  44   19   58 1
  45   20   21 1
  46   20   22 1
  47   21   59 1
  48   21   60 1
  49   21   61 1
  50   22   23 1
  51   22   24 1
  52   24   25 1
  53   24   62 1
  54   24   63 1
  55   25   26 1
  56   25   64 1
  57   25   65 1
  58   26   27 1
  59   27   66 1
  60   27   67 1
  61   27   68 1
  62   28   29 1
  63   28   30 1
  64   28   31 1
  65   30   69 1
  66   30   70 1
  67   30   71 1
  68   31   32 1
  69   31   33 1
  70   31   34 1
  71   33   72 1
  72   34   35 1
  73   34   73 1
  74   34   74 1
  75   35   36 1
  76   35   75 1
  77   35   76 1
  78   36   37 1
  79   36   38 1
  80   36   77 1
  81   37   78 1
  82   37   79 1
  83   37   80 1
  84   38   81 1
  85   38   82 1
  86   38   83 1

#	End of record

