#	Name: ASD04590704
#	Creating user name:	WinNT
#	Creation time:	15. 06. 2019 20:51

#	Modifying user name:	WinNT
#	Modification time:	15. 06. 2019 20:51

#	Program:	/corina/corina34_cracker 3.40 0067  02.08.2006

@<TRIPOS>MOLECULE
ASD04590704
  70   75    0    0    0
SMALL
NO_CHARGES


@<TRIPOS>ATOM
   1 N1            -2.3783    -2.7059     0.0202 N.ar    
   2 C2            -1.2117    -2.0738     0.0039 C.ar    
   3 N3            -0.0574    -2.7202    -0.0183 N.ar    
   4 C4            -0.0260    -4.0496    -0.0246 C.ar    
   5 C5            -1.2488    -4.7506    -0.0072 C.ar    
   6 C6            -2.4371    -4.0274     0.0154 C.ar    
   7 N7             0.9973    -4.9640    -0.0458 N.pl3   
   8 C8             0.4930    -6.2538    -0.0430 C.ar    
   9 C9            -0.9096    -6.1793    -0.0192 C.ar    
  10 N10           -1.2020    -0.6888     0.0098 N.pl3   
  11 C11           -2.4014     0.0175    -0.0802 C.ar    
  12 C12            2.4221    -4.6237    -0.0689 C.3     
  13 C13            2.7452    -3.7927    -1.3231 C.3     
  14 C14            1.0885    -7.5120    -0.0585 C.ar    
  15 N15            0.3453    -8.6019    -0.0508 N.ar    
  16 C16           -0.9759    -8.5583    -0.0285 C.ar    
  17 C17           -1.6449    -7.3655    -0.0125 C.ar    
  18 C18            3.2827    -2.4350    -0.8257 C.3     
  19 C19            3.8159    -2.7357     0.5971 C.3     
  20 C20            2.7745    -3.7419     1.1468 C.3     
  21 N21           -3.5341    -0.6390    -0.2721 N.ar    
  22 C22           -4.6919    -0.0125    -0.3630 C.ar    
  23 C23           -4.7607     1.3687    -0.2594 C.ar    
  24 C24           -3.5876     2.0943    -0.0570 C.ar    
  25 C25           -2.3938     1.4030     0.0385 C.ar    
  26 N26           -5.9927     2.0262    -0.3574 N.3     
  27 C27           -7.0856     1.0677    -0.5694 C.3     
  28 C28           -8.4278     1.8028    -0.4900 C.3     
  29 N29           -8.3988     2.9313    -1.4327 N.am    
  30 C30           -7.2599     3.8599    -1.3718 C.3     
  31 C31           -5.9636     3.0438    -1.4164 C.3     
  32 C32           -9.3895     3.1097    -2.3290 C.2     
  33 C33           -9.3397     4.2730    -3.2857 C.3     
  34 O34          -10.3211     2.3339    -2.3655 O.2     
  35 N35          -10.5255     4.2453    -4.1524 N.3     
  36 F36            2.4352    -7.6176    -0.0820 F       
  37 C37          -11.7502     4.4829    -3.3767 C.3     
  38 C38          -10.3996     5.2158    -5.2479 C.3     
  39 H39           -3.3900    -4.5355     0.0295 H       
  40 H40           -0.3610    -0.2099     0.0766 H       
  41 H41            3.0231    -5.5329    -0.0584 H       
  42 H42            3.5037    -4.2983    -1.9208 H       
  43 H43            1.8420    -3.6427    -1.9145 H       
  44 H44           -1.5369    -9.4811    -0.0232 H       
  45 H45           -2.7245    -7.3419     0.0057 H       
  46 H46            4.0897    -2.0852    -1.4695 H       
  47 H47            2.4800    -1.6988    -0.7845 H       
  48 H48            4.8054    -3.1906     0.5506 H       
  49 H49            3.8343    -1.8294     1.2023 H       
  50 H50            1.8897    -3.2167     1.5065 H       
  51 H51            3.2107    -4.3458     1.9425 H       
  52 H52           -5.5961    -0.5817    -0.5202 H       
  53 H53           -3.6112     3.1708     0.0271 H       
  54 H54           -1.4660     1.9332     0.1956 H       
  55 H55           -6.9804     0.6076    -1.5519 H       
  56 H56           -7.0472     0.2964     0.1999 H       
  57 H57           -9.2349     1.1214    -0.7593 H       
  58 H58           -8.5819     2.1754     0.5226 H       
  59 H59           -7.2947     4.5386    -2.2240 H       
  60 H60           -7.3017     4.4303    -0.4439 H       
  61 H61           -5.1116     3.7058    -1.2614 H       
  62 H62           -5.8740     2.5562    -2.3871 H       
  63 H63           -9.3230     5.2061    -2.7225 H       
  64 H64           -8.4406     4.2018    -3.8977 H       
  65 H65          -11.6918     5.4591    -2.8954 H       
  66 H66          -12.6128     4.4571    -4.0426 H       
  67 H67          -11.8547     3.7087    -2.6165 H       
  68 H68           -9.5223     4.9744    -5.8481 H       
  69 H69          -11.2908     5.1745    -5.8741 H       
  70 H70          -10.2923     6.2186    -4.8344 H       
@<TRIPOS>BOND
   1    1    2 ar
   2    1    6 ar
   3    2    3 ar
   4    2   10 1
   5    3    4 ar
   6    4    5 ar
   7    4    7 1
   8    5    6 ar
   9    5    9 1
  10    6   39 1
  11    7    8 1
  12    7   12 1
  13    8    9 ar
  14    8   14 ar
  15    9   17 ar
  16   10   11 1
  17   10   40 1
  18   11   21 ar
  19   11   25 ar
  20   12   13 1
  21   12   20 1
  22   12   41 1
  23   13   18 1
  24   13   42 1
  25   13   43 1
  26   14   15 ar
  27   14   36 1
  28   15   16 ar
  29   16   17 ar
  30   16   44 1
  31   17   45 1
  32   18   19 1
  33   18   46 1
  34   18   47 1
  35   19   20 1
  36   19   48 1
  37   19   49 1
  38   20   50 1
  39   20   51 1
  40   21   22 ar
  41   22   23 ar
  42   22   52 1
  43   23   24 ar
  44   23   26 1
  45   24   25 ar
  46   24   53 1
  47   25   54 1
  48   26   27 1
  49   26   31 1
  50   27   28 1
  51   27   55 1
  52   27   56 1
  53   28   29 1
  54   28   57 1
  55   28   58 1
  56   29   30 1
  57   29   32 am
  58   30   31 1
  59   30   59 1
  60   30   60 1
  61   31   61 1
  62   31   62 1
  63   32   33 1
  64   32   34 2
  65   33   35 1
  66   33   63 1
  67   33   64 1
  68   35   37 1
  69   35   38 1
  70   37   65 1
  71   37   66 1
  72   37   67 1
  73   38   68 1
  74   38   69 1
  75   38   70 1

#	End of record

