#	Name: ASD07301350
#	Creating user name:	WinNT
#	Creation time:	15. 06. 2019 21:11

#	Modifying user name:	WinNT
#	Modification time:	15. 06. 2019 21:11

#	Program:	/corina/corina34_cracker 3.40 0067  02.08.2006

@<TRIPOS>MOLECULE
ASD07301350
  31   31    0    0    0
SMALL
NO_CHARGES


@<TRIPOS>ATOM
   1 C1            -0.0230     1.4621    -0.1073 C.2     
   2 C2             0.0019    -0.0043     0.0012 C.2     
   3 C3             1.2787    -0.7166    -0.0086 C.2     
   4 C4             1.9471    -1.0830     1.2914 C.3     
   5 O5             1.0180     2.0820    -0.2052 O.2     
   6 O6            -1.2005     2.1183    -0.1039 O.3     
   7 N7            -1.1296    -0.6782     0.1076 N.2     
   8 N8            -1.1155    -1.9681     0.0986 N.pl3   
   9 C9            -2.3158    -2.6789     0.1044 C.ar    
  10 C10           -2.3026    -4.0690     0.0947 C.ar    
  11 C11           -3.4925    -4.7690     0.1010 C.ar    
  12 C12           -4.6969    -4.0889     0.1169 C.ar    
  13 C13           -4.7141    -2.7062     0.1262 C.ar    
  14 C14           -3.5279    -1.9991     0.1258 C.ar    
  15 C15           -3.4792    -6.2759     0.0900 C.3     
  16 F16           -3.4626    -6.7517     1.4055 F       
  17 F17           -4.6236    -6.7476    -0.5621 F       
  18 F18           -2.3392    -6.7273    -0.5837 F       
  19 O19            1.8004    -1.0126    -1.0638 O.2     
  20 C20           -1.1492     3.5652    -0.2144 C.3     
  21 H21            1.2547    -1.6577     1.9066 H       
  22 H22            2.8348    -1.6818     1.0874 H       
  23 H23            2.2353    -0.1747     1.8205 H       
  24 H24           -0.2702    -2.4438     0.0878 H       
  25 H25           -1.3626    -4.6007     0.0819 H       
  26 H26           -5.6262    -4.6392     0.1218 H       
  27 H27           -5.6564    -2.1786     0.1379 H       
  28 H28           -3.5420    -0.9193     0.1375 H       
  29 H29           -2.1623     3.9670    -0.1992 H       
  30 H30           -0.5837     3.9737     0.6232 H       
  31 H31           -0.6629     3.8411    -1.1500 H       
@<TRIPOS>BOND
   1    1    2 1
   2    1    5 2
   3    1    6 1
   4    2    3 1
   5    2    7 2
   6    3    4 1
   7    3   19 2
   8    4   21 1
   9    4   22 1
  10    4   23 1
  11    6   20 1
  12    7    8 1
  13    8    9 1
  14    8   24 1
  15    9   10 ar
  16    9   14 ar
  17   10   11 ar
  18   10   25 1
  19   11   12 ar
  20   11   15 1
  21   12   13 ar
  22   12   26 1
  23   13   14 ar
  24   13   27 1
  25   14   28 1
  26   15   16 1
  27   15   17 1
  28   15   18 1
  29   20   29 1
  30   20   30 1
  31   20   31 1

#	End of record

