#	Name: ASD01911712
#	Creating user name:	WinNT
#	Creation time:	15. 06. 2019 19:58

#	Modifying user name:	WinNT
#	Modification time:	15. 06. 2019 19:58

#	Program:	/corina/corina34_cracker 3.40 0067  02.08.2006

@<TRIPOS>MOLECULE
ASD01911712
  49   52    0    0    0
SMALL
NO_CHARGES


@<TRIPOS>ATOM
   1 N1             0.0924     1.6733    -0.0559 N.am    
   2 C2             0.2710     0.3412     0.0435 C.2     
   3 C3             1.6197    -0.2253    -0.0390 C.2     
   4 C4             1.9513    -1.5420     0.1348 C.2     
   5 S5             3.0989     0.6676    -0.3869 S.3     
   6 C6             4.0274    -0.8235    -0.2576 C.2     
   7 N7             3.2190    -1.8177     0.0142 N.2     
   8 C8             5.4450    -0.9327    -0.4279 C.1     
   9 C9             6.6072    -1.0223    -0.5676 C.1     
  10 C10            8.0249    -1.1315    -0.7379 C.ar    
  11 C11            8.6542    -2.3737    -0.6110 C.ar    
  12 C12           10.0196    -2.4709    -0.7769 C.ar    
  13 C13           10.7670    -1.3429    -1.0678 C.ar    
  14 C14           10.1513    -0.1100    -1.1950 C.ar    
  15 C15            8.7860     0.0024    -1.0377 C.ar    
  16 O16           -0.6881    -0.3913     0.2018 O.2     
  17 C17           -1.2052     2.3633    -0.0960 C.3     
  18 C18            1.1660     2.6805    -0.1361 C.3     
  19 C19            0.5210     3.9898     0.3829 C.3     
  20 C20           -0.9169     3.8767    -0.1853 C.3     
  21 C21           -1.9973     1.9111    -1.3244 C.3     
  22 N22           -3.3393     2.5074    -1.2885 N.3     
  23 C23           -4.0303     2.3315    -2.5791 C.3     
  24 C24           -4.1636     1.8935    -0.2257 C.3     
  25 C25           -5.6058     1.8987    -0.7909 C.3     
  26 C26           -5.3554     1.5946    -2.2915 C.3     
  27 H27            1.2139    -2.2991     0.3568 H       
  28 H28            8.0724    -3.2546    -0.3832 H       
  29 H29           10.5072    -3.4296    -0.6791 H       
  30 H30           11.8362    -1.4253    -1.1960 H       
  31 H31           10.7413     0.7658    -1.4219 H       
  32 H32            8.3070     0.9652    -1.1372 H       
  33 H33           -1.7698     2.1440     0.8103 H       
  34 H34            2.0041     2.3930     0.4988 H       
  35 H35            1.4951     2.8029    -1.1680 H       
  36 H36            0.5076     4.0136     1.4726 H       
  37 H37            1.0334     4.8639    -0.0191 H       
  38 H38           -0.9502     4.2159    -1.2206 H       
  39 H39           -1.6197     4.4397     0.4289 H       
  40 H40           -1.4806     2.2331    -2.2286 H       
  41 H41           -2.0823     0.8244    -1.3221 H       
  42 H42           -4.2364     3.3045    -3.0250 H       
  43 H43           -3.4133     1.7360    -3.2519 H       
  44 H44           -3.8351     0.8722    -0.0330 H       
  45 H45           -4.1113     2.4883     0.6862 H       
  46 H46           -6.2088     1.1167    -0.3294 H       
  47 H47           -6.0718     2.8757    -0.6630 H       
  48 H48           -6.1611     1.9965    -2.9058 H       
  49 H49           -5.2434     0.5227    -2.4540 H       
@<TRIPOS>BOND
   1    1    2 am
   2    1   18 1
   3    1   17 1
   4    2    3 1
   5    2   16 2
   6    3    4 2
   7    3    5 1
   8    4    7 1
   9    4   27 1
  10    5    6 1
  11    6    7 2
  12    6    8 1
  13    8    9 3
  14    9   10 1
  15   10   11 ar
  16   10   15 ar
  17   11   12 ar
  18   11   28 1
  19   12   13 ar
  20   12   29 1
  21   13   14 ar
  22   13   30 1
  23   14   15 ar
  24   14   31 1
  25   15   32 1
  26   17   21 1
  27   17   20 1
  28   17   33 1
  29   18   19 1
  30   18   34 1
  31   18   35 1
  32   19   20 1
  33   19   36 1
  34   19   37 1
  35   20   38 1
  36   20   39 1
  37   21   22 1
  38   21   40 1
  39   21   41 1
  40   22   23 1
  41   22   24 1
  42   23   26 1
  43   23   42 1
  44   23   43 1
  45   24   25 1
  46   24   44 1
  47   24   45 1
  48   25   26 1
  49   25   46 1
  50   25   47 1
  51   26   48 1
  52   26   49 1

#	End of record

