#	Name: ASD01410977
#	Creating user name:	WinNT
#	Creation time:	15. 06. 2019 19:19

#	Modifying user name:	WinNT
#	Modification time:	15. 06. 2019 19:19

#	Program:	/corina/corina34_cracker 3.40 0067  02.08.2006

@<TRIPOS>MOLECULE
ASD01410977
  56   59    0    0    0
SMALL
NO_CHARGES


@<TRIPOS>ATOM
   1 C1            -0.0225     1.8097     0.0120 C.ar    
   2 P2             0.0021    -0.0041     0.0020 P.3     
   3 N3             0.0243    -0.5590     1.5451 N.pl3   
   4 O4            -1.2061    -0.5101    -0.6869 O.2     
   5 C5             0.0452    -1.9289     1.7920 C.2     
   6 C6             0.0645    -2.4576     3.0625 C.2     
   7 S7             0.0875    -4.2132     2.9709 S.3     
   8 C8             0.0702    -4.1615     1.2139 C.2     
   9 C9             0.0426    -2.8672     0.7870 C.2     
  10 C10            0.0660    -1.7053     4.2567 C.2     
  11 O11            0.0494    -0.4887     4.2099 O.2     
  12 O12            0.0858    -2.3347     5.4512 O.3     
  13 C13            0.0784    -5.3445     0.3315 C.ar    
  14 C14            0.1010    -6.6285     0.8845 C.ar    
  15 C15            0.1091    -7.7236     0.0687 C.ar    
  16 C16            0.0941    -7.5604    -1.3213 C.ar    
  17 C17            0.0710    -6.2748    -1.8740 C.ar    
  18 C18            0.0577    -5.1808    -1.0569 C.ar    
  19 O19            1.3165    -0.5187    -0.7723 O.3     
  20 C20            1.5888    -0.2019    -2.1389 C.3     
  21 C21            0.1030    -8.7082    -2.1774 C.1     
  22 C22            1.1649     2.5170     0.0045 C.ar    
  23 C23            1.1461     3.8994     0.0121 C.ar    
  24 C24           -0.0600     4.5741     0.0268 C.ar    
  25 C25           -1.2478     3.8666     0.0335 C.ar    
  26 C26           -1.2291     2.4847     0.0214 C.ar    
  27 C27           -0.0805     6.0810     0.0362 C.3     
  28 C28            2.4800     1.7814    -0.0116 C.3     
  29 C29            0.1103    -9.6493    -2.8793 C.1     
  30 C30            0.1192   -10.7971    -3.7355 C.2     
  31 C31            0.1050   -10.7101    -5.1747 C.2     
  32 C32            0.1164   -11.8870    -5.7897 C.2     
  33 S33            0.1459   -13.1952    -4.6185 S.3     
  34 C34            0.1475   -12.0656    -3.2731 C.2     
  35 H35            0.0227     0.0673     2.2858 H       
  36 H36            0.0241    -2.5996    -0.2592 H       
  37 H37            0.0852    -1.7365     6.2110 H       
  38 H38            0.1125    -6.7542     1.9571 H       
  39 H39            0.1273    -8.7153     0.4959 H       
  40 H40            0.0599    -6.1481    -2.9465 H       
  41 H41            0.0354    -4.1887    -1.4832 H       
  42 H42            0.7839    -0.5828    -2.7675 H       
  43 H43            1.6589     0.8797    -2.2541 H       
  44 H44            2.5312    -0.6610    -2.4375 H       
  45 H45            2.0740     4.4521     0.0069 H       
  46 H46           -2.1903     4.3939     0.0453 H       
  47 H47           -2.1570     1.9320     0.0227 H       
  48 H48           -0.0945     6.4505    -0.9892 H       
  49 H49           -0.9707     6.4290     0.5600 H       
  50 H50            0.8090     6.4533     0.5445 H       
  51 H51            2.7875     1.6092    -1.0431 H       
  52 H52            3.2364     2.3781     0.4982 H       
  53 H53            2.3675     0.8247     0.4985 H       
  54 H54            0.0862    -9.7700    -5.7060 H       
  55 H55            0.1081   -12.0211    -6.8613 H       
  56 H56            0.1667   -12.3445    -2.2299 H       
@<TRIPOS>BOND
   1    1    2 1
   2    1   22 ar
   3    1   26 ar
   4    2    3 1
   5    2    4 2
   6    2   19 1
   7    3    5 1
   8    3   35 1
   9    5    6 2
  10    5    9 1
  11    6    7 1
  12    6   10 1
  13    7    8 1
  14    8    9 2
  15    8   13 1
  16    9   36 1
  17   10   11 2
  18   10   12 1
  19   12   37 1
  20   13   14 ar
  21   13   18 ar
  22   14   15 ar
  23   14   38 1
  24   15   16 ar
  25   15   39 1
  26   16   17 ar
  27   16   21 1
  28   17   18 ar
  29   17   40 1
  30   18   41 1
  31   19   20 1
  32   20   42 1
  33   20   43 1
  34   20   44 1
  35   21   29 3
  36   22   23 ar
  37   22   28 1
  38   23   24 ar
  39   23   45 1
  40   24   25 ar
  41   24   27 1
  42   25   26 ar
  43   25   46 1
  44   26   47 1
  45   27   48 1
  46   27   49 1
  47   27   50 1
  48   28   51 1
  49   28   52 1
  50   28   53 1
  51   29   30 1
  52   30   31 1
  53   30   34 2
  54   31   32 2
  55   31   54 1
  56   32   33 1
  57   32   55 1
  58   33   34 1
  59   34   56 1

#	End of record

