#	Name: ASD01510074
#	Creating user name:	WinNT
#	Creation time:	15. 06. 2019 19:21

#	Modifying user name:	WinNT
#	Modification time:	15. 06. 2019 19:21

#	Program:	/corina/corina34_cracker 3.40 0067  02.08.2006

@<TRIPOS>MOLECULE
ASD01510074
  29   30    0    0    0
SMALL
NO_CHARGES


@<TRIPOS>ATOM
   1 C1            -0.0184     1.5028     0.0103 C.3     
   2 C2             0.0021    -0.0041     0.0020 C.ar    
   3 N3             0.0220    -0.6795     1.1391 N.ar    
   4 C4             0.0401    -2.0043     1.1397 C.ar    
   5 N5             0.0389    -2.6985     0.0111 N.ar    
   6 C6             0.0195    -2.0844    -1.1603 C.ar    
   7 C7            -0.0056    -0.6991    -1.1972 C.ar    
   8 C8             0.0182    -2.8815    -2.4392 C.3     
   9 N9             0.0612    -2.6792     2.3479 N.3     
  10 C10            0.0790    -4.1342     2.1384 C.3     
  11 C11            0.1623    -4.8387     3.4951 C.3     
  12 O12           -0.9361    -4.4226     4.3109 O.3     
  13 C13           -0.9838    -3.0110     4.5360 C.3     
  14 C14           -1.0787    -2.2880     3.1898 C.3     
  15 H15            1.0042     1.8801     0.0026 H       
  16 H16           -0.5455     1.8639    -0.8728 H       
  17 H17           -0.5286     1.8543     0.9071 H       
  18 H18           -0.0222    -0.1725    -2.1399 H       
  19 H19           -1.0096    -3.0877    -2.7379 H       
  20 H20            0.5170    -2.3115    -3.2231 H       
  21 H21            0.5465    -3.8219    -2.2818 H       
  22 H22           -0.8330    -4.4392     1.6253 H       
  23 H23            0.9451    -4.4044     1.5342 H       
  24 H24            0.1182    -5.9179     3.3481 H       
  25 H25            1.0998    -4.5755     3.9849 H       
  26 H26           -1.8568    -2.7684     5.1418 H       
  27 H27           -0.0796    -2.6947     5.0561 H       
  28 H28           -1.0577    -1.2105     3.3531 H       
  29 H29           -2.0092    -2.5635     2.6935 H       
@<TRIPOS>BOND
   1    1    2 1
   2    1   15 1
   3    1   16 1
   4    1   17 1
   5    2    3 ar
   6    2    7 ar
   7    3    4 ar
   8    4    5 ar
   9    4    9 1
  10    5    6 ar
  11    6    7 ar
  12    6    8 1
  13    7   18 1
  14    8   19 1
  15    8   20 1
  16    8   21 1
  17    9   10 1
  18    9   14 1
  19   10   11 1
  20   10   22 1
  21   10   23 1
  22   11   12 1
  23   11   24 1
  24   11   25 1
  25   12   13 1
  26   13   14 1
  27   13   26 1
  28   13   27 1
  29   14   28 1
  30   14   29 1

#	End of record

