#	Name: ASD06170185
#	Creating user name:	WinNT
#	Creation time:	15. 06. 2019 21:05

#	Modifying user name:	WinNT
#	Modification time:	15. 06. 2019 21:05

#	Program:	/corina/corina34_cracker 3.40 0067  02.08.2006

@<TRIPOS>MOLECULE
ASD06170185
  71   76    0    0    0
SMALL
NO_CHARGES


@<TRIPOS>ATOM
   1 C1            -0.0632     1.2288    -0.1182 C.2     
   2 C2            -0.0031    -0.1117    -0.4349 C.2     
   3 C3             1.2424    -0.7599    -0.4900 C.2     
   4 C4             2.3928    -0.0251    -0.2210 C.2     
   5 C5             2.2705     1.3521     0.0994 C.2     
   6 N6             1.0569     1.9318     0.1407 N.am    
   7 C7            -2.0318    -0.5547    -1.8256 C.ar    
   8 C8            -1.2493    -0.8675    -0.7160 C.ar    
   9 C9            -1.6564    -1.9041     0.1274 C.ar    
  10 C10           -2.8262    -2.5787    -0.1786 C.ar    
  11 C11           -3.5474    -2.2083    -1.2986 C.ar    
  12 N12           -3.1377    -1.2249    -2.0765 N.ar    
  13 C13            3.7158    -0.6660    -0.2676 C.2     
  14 O14            3.8038    -1.8683    -0.4306 O.2     
  15 N15            4.8306     0.0788    -0.1298 N.am    
  16 C16            0.9514     3.3547     0.4730 C.3     
  17 C17            0.8038     3.5126     1.9644 C.ar    
  18 C18            1.9265     3.6474     2.7596 C.ar    
  19 C19            1.7912     3.7923     4.1276 C.ar    
  20 C20            0.5332     3.8028     4.7005 C.ar    
  21 C21           -0.5895     3.6689     3.9052 C.ar    
  22 C22           -0.4544     3.5284     2.5367 C.ar    
  23 O23            3.2674     2.0114     0.3379 O.2     
  24 C24            6.0771    -0.5410    -0.0434 C.ar    
  25 C25            6.1527    -1.8913     0.2799 C.ar    
  26 C26            7.3938    -2.4959     0.3629 C.ar    
  27 C27            8.5262    -1.7230     0.1175 C.ar    
  28 C28            8.3741    -0.3827    -0.1995 C.ar    
  29 N29            7.1744     0.1611    -0.2754 N.ar    
  30 O30            9.7658    -2.2768     0.1887 O.3     
  31 N31           10.9708    -4.6832    -2.9368 N.ar    
  32 C32            9.8294    -4.0389    -3.0019 C.ar    
  33 C33            9.3905    -3.2198    -1.9693 C.ar    
  34 C34           10.1684    -3.0699    -0.8347 C.ar    
  35 C35           11.3954    -3.7683    -0.7756 C.ar    
  36 C36           12.2376    -3.6665     0.3417 C.ar    
  37 C37           13.4155    -4.3558     0.3649 C.ar    
  38 C38           13.7922    -5.1641    -0.7172 C.ar    
  39 C39           12.9914    -5.2809    -1.8166 C.ar    
  40 C40           11.7728    -4.5842    -1.8699 C.ar    
  41 O41           14.9702    -5.8399    -0.6710 O.3     
  42 C42           15.2998    -6.6472    -1.8031 C.3     
  43 O43           14.2319    -4.2572     1.4478 O.3     
  44 C44           13.7924    -3.4176     2.5173 C.3     
  45 H45           -1.0223     1.7241    -0.0814 H       
  46 H46            1.3055    -1.8095    -0.7362 H       
  47 H47           -1.7312     0.2473    -2.4835 H       
  48 H48           -1.0733    -2.1728     0.9958 H       
  49 H49           -3.1714    -3.3858     0.4507 H       
  50 H50           -4.4601    -2.7325    -1.5405 H       
  51 H51            4.7661     1.0458    -0.0906 H       
  52 H52            1.8504     3.8732     0.1398 H       
  53 H53            0.0805     3.7806    -0.0254 H       
  54 H54            2.9094     3.6392     2.3120 H       
  55 H55            2.6684     3.8968     4.7489 H       
  56 H56            0.4275     3.9152     5.7694 H       
  57 H57           -1.5724     3.6768     4.3528 H       
  58 H58           -1.3317     3.4275     1.9149 H       
  59 H59            5.2536    -2.4606     0.4643 H       
  60 H60            7.4828    -3.5429     0.6124 H       
  61 H61            9.2476     0.2230    -0.3907 H       
  62 H62            9.2143    -4.1482    -3.8829 H       
  63 H63            8.4464    -2.7019    -2.0518 H       
  64 H64           11.9555    -3.0456     1.1792 H       
  65 H65           13.2939    -5.9070    -2.6429 H       
  66 H66           14.5313    -7.4075    -1.9433 H       
  67 H67           15.3568    -6.0198    -2.6926 H       
  68 H68           16.2627    -7.1303    -1.6369 H       
  69 H69           13.6671    -2.3986     2.1513 H       
  70 H70           12.8407    -3.7857     2.9006 H       
  71 H71           14.5342    -3.4282     3.3159 H       
@<TRIPOS>BOND
   1    1    2 2
   2    1    6 1
   3    1   45 1
   4    2    3 1
   5    2    8 1
   6    3    4 2
   7    3   46 1
   8    4    5 1
   9    4   13 1
  10    5    6 am
  11    5   23 2
  12    6   16 1
  13    7    8 ar
  14    7   12 ar
  15    7   47 1
  16    8    9 ar
  17    9   10 ar
  18    9   48 1
  19   10   11 ar
  20   10   49 1
  21   11   12 ar
  22   11   50 1
  23   13   14 2
  24   13   15 am
  25   15   24 1
  26   15   51 1
  27   16   17 1
  28   16   52 1
  29   16   53 1
  30   17   18 ar
  31   17   22 ar
  32   18   19 ar
  33   18   54 1
  34   19   20 ar
  35   19   55 1
  36   20   21 ar
  37   20   56 1
  38   21   22 ar
  39   21   57 1
  40   22   58 1
  41   24   25 ar
  42   24   29 ar
  43   25   26 ar
  44   25   59 1
  45   26   27 ar
  46   26   60 1
  47   27   28 ar
  48   27   30 1
  49   28   29 ar
  50   28   61 1
  51   30   34 1
  52   31   32 ar
  53   31   40 ar
  54   32   33 ar
  55   32   62 1
  56   33   34 ar
  57   33   63 1
  58   34   35 ar
  59   35   36 ar
  60   35   40 ar
  61   36   37 ar
  62   36   64 1
  63   37   38 ar
  64   37   43 1
  65   38   39 ar
  66   38   41 1
  67   39   40 ar
  68   39   65 1
  69   41   42 1
  70   42   66 1
  71   42   67 1
  72   42   68 1
  73   43   44 1
  74   44   69 1
  75   44   70 1
  76   44   71 1

#	End of record

