#	Name: ASD01000027
#	Creating user name:	WinNT
#	Creation time:	15. 06. 2019 18:54

#	Modifying user name:	WinNT
#	Modification time:	15. 06. 2019 18:54

#	Program:	/corina/corina34_cracker 3.40 0067  02.08.2006

@<TRIPOS>MOLECULE
ASD01000027
  52   54    0    0    0
SMALL
NO_CHARGES


@<TRIPOS>ATOM
   1 C1             0.0422     1.3891     0.2037 C.ar    
   2 N2            -0.0552    -2.7213    -0.4546 N.3     
   3 C3             0.0524     0.0049     0.1941 C.ar    
   4 N4            -3.4999    -3.7610     3.5296 N.3     
   5 C5             1.2410    -0.6762     0.0111 C.ar    
   6 C6             2.4213     0.0259    -0.1626 C.ar    
   7 C7             2.4111     1.4106    -0.1530 C.ar    
   8 C8             1.2229     2.0914     0.0299 C.ar    
   9 C9            -0.2601    -4.3880     2.4573 C.2     
  10 C10           -1.5528    -4.5112     2.2842 C.2     
  11 C11           -3.2748    -5.2515    -3.3475 C.3     
  12 C12            1.2522    -2.1831     0.0013 C.3     
  13 C13           -2.4484    -4.7848     3.4649 C.3     
  14 N14           -0.1647    -3.9925     0.0475 N.am    
  15 C15            0.6355    -4.1144     1.2766 C.3     
  16 C16            1.3417    -2.7476     1.4452 C.3     
  17 C17            1.6540    -5.2153     1.1291 C.ar    
  18 C18            2.1868    -5.8191     2.2527 C.ar    
  19 C19            3.1211    -6.8288     2.1173 C.ar    
  20 C20            3.5222    -7.2352     0.8584 C.ar    
  21 C21            2.9887    -6.6320    -0.2652 C.ar    
  22 C22            2.0512    -5.6252    -0.1299 C.ar    
  23 C23           -0.8962    -4.9822    -0.5020 C.2     
  24 N24           -1.6828    -4.7275    -1.5664 N.am    
  25 C25           -2.4778    -5.8033    -2.1637 C.3     
  26 O26           -0.8464    -6.1047    -0.0376 O.2     
  27 F27            3.5833    -0.6398    -0.3410 F       
  28 F28           -1.1206     2.0548     0.3769 F       
  29 H29           -0.8162    -2.1401    -0.1367 H       
  30 H30           -0.8684    -0.5429     0.3300 H       
  31 H31           -4.0194    -3.7211     2.6655 H       
  32 H32           -4.1141    -3.9226     4.3136 H       
  33 H33            3.3320     1.9583    -0.2882 H       
  34 H34            1.2149     3.1713     0.0374 H       
  35 H35            0.1637    -4.4826     3.4461 H       
  36 H36           -1.9766    -4.4166     1.2954 H       
  37 H37           -3.8663    -6.0519    -3.7919 H       
  38 H38           -3.9380    -4.4589    -3.0011 H       
  39 H39           -2.5878    -4.8506    -4.0928 H       
  40 H40            2.0665    -2.5610    -0.6170 H       
  41 H41           -1.8592    -4.7589     4.3816 H       
  42 H42           -2.9052    -5.7683     3.3542 H       
  43 H43            2.3796    -2.8776     1.7518 H       
  44 H44            0.8035    -2.1122     2.1487 H       
  45 H45            1.8734    -5.5016     3.2362 H       
  46 H46            3.5379    -7.3001     2.9952 H       
  47 H47            4.2527    -8.0236     0.7527 H       
  48 H48            3.3024    -6.9492    -1.2488 H       
  49 H49            1.6316    -5.1565    -1.0078 H       
  50 H50           -1.7225    -3.8320    -1.9369 H       
  51 H51           -3.1648    -6.2042    -1.4185 H       
  52 H52           -1.8146    -6.5959    -2.5101 H       
@<TRIPOS>BOND
   1    1    3 ar
   2    1    8 ar
   3    1   28 1
   4    2   12 1
   5    2   14 1
   6    2   29 1
   7    3    5 ar
   8    3   30 1
   9    4   13 1
  10    4   31 1
  11    4   32 1
  12    5    6 ar
  13    5   12 1
  14    6    7 ar
  15    6   27 1
  16    7    8 ar
  17    7   33 1
  18    8   34 1
  19    9   10 2
  20    9   15 1
  21    9   35 1
  22   10   13 1
  23   10   36 1
  24   11   25 1
  25   11   37 1
  26   11   38 1
  27   11   39 1
  28   12   16 1
  29   12   40 1
  30   13   41 1
  31   13   42 1
  32   14   15 1
  33   14   23 am
  34   15   16 1
  35   15   17 1
  36   16   43 1
  37   16   44 1
  38   17   18 ar
  39   17   22 ar
  40   18   19 ar
  41   18   45 1
  42   19   20 ar
  43   19   46 1
  44   20   21 ar
  45   20   47 1
  46   21   22 ar
  47   21   48 1
  48   22   49 1
  49   23   24 am
  50   23   26 2
  51   24   25 1
  52   24   50 1
  53   25   51 1
  54   25   52 1

#	End of record

