#	Name: ASD05430563
#	Creating user name:	WinNT
#	Creation time:	15. 06. 2019 21:00

#	Modifying user name:	WinNT
#	Modification time:	15. 06. 2019 21:00

#	Program:	/corina/corina34_cracker 3.40 0067  02.08.2006

@<TRIPOS>MOLECULE
ASD05430563
  35   36    0    0    0
SMALL
NO_CHARGES


@<TRIPOS>ATOM
   1 C1            -0.0168     1.3846     0.0097 C.ar    
   2 C2             0.0021    -0.0041     0.0020 C.ar    
   3 C3             1.1936     2.0738     0.0018 C.ar    
   4 C4             2.3869     1.3819    -0.0081 C.ar    
   5 C5             2.3928    -0.0009    -0.0102 C.ar    
   6 C6             1.1948    -0.6929    -0.0044 C.ar    
   7 C7             1.1995     3.5807     0.0036 C.3     
   8 C8             1.1949    -2.1999    -0.0062 C.3     
   9 C9             1.9093    -2.7085    -1.2599 C.3     
  10 C10            1.9230    -2.7113     1.2385 C.3     
  11 C11            1.9317     4.0864     1.2482 C.3     
  12 C12            1.9138     4.0894    -1.2502 C.3     
  13 C13           -1.4416    -0.4681    -0.0010 C.3     
  14 C14           -2.1925     0.8258    -0.3952 C.3     
  15 O15           -1.2920     1.8602     0.0363 O.3     
  16 F16           -1.6420    -1.4725    -0.9540 F       
  17 F17           -1.8295    -0.9036     1.2707 F       
  18 H18            3.3215     1.9231    -0.0145 H       
  19 H19            3.3293    -0.5388    -0.0164 H       
  20 H20            0.1733     3.9481     0.0114 H       
  21 H21            0.1673    -2.5633    -0.0009 H       
  22 H22            1.9093    -3.7985    -1.2612 H       
  23 H23            1.3906    -2.3441    -2.1467 H       
  24 H24            2.9369    -2.3451    -1.2652 H       
  25 H25            1.4141    -2.3491     2.1317 H       
  26 H26            1.9231    -3.8013     1.2372 H       
  27 H27            2.9507    -2.3480     1.2333 H       
  28 H28            2.9579     3.7190     1.2404 H       
  29 H29            1.9360     5.1764     1.2495 H       
  30 H30            1.4229     3.7240     2.1414 H       
  31 H31            2.9400     3.7221    -1.2580 H       
  32 H32            1.3922     3.7292    -2.1369 H       
  33 H33            1.9181     5.1794    -1.2489 H       
  34 H34           -2.3442     0.8710    -1.4736 H       
  35 H35           -3.1434     0.8966     0.1329 H       
@<TRIPOS>BOND
   1    1    2 ar
   2    1    3 ar
   3    1   15 1
   4    2   13 1
   5    2    6 ar
   6    3    4 ar
   7    3    7 1
   8    4    5 ar
   9    4   18 1
  10    5    6 ar
  11    5   19 1
  12    6    8 1
  13    7   11 1
  14    7   12 1
  15    7   20 1
  16    8    9 1
  17    8   10 1
  18    8   21 1
  19    9   22 1
  20    9   23 1
  21    9   24 1
  22   10   25 1
  23   10   26 1
  24   10   27 1
  25   11   28 1
  26   11   29 1
  27   11   30 1
  28   12   31 1
  29   12   32 1
  30   12   33 1
  31   13   14 1
  32   13   16 1
  33   13   17 1
  34   14   15 1
  35   14   34 1
  36   14   35 1

#	End of record

