#	Name: ASD05380056
#	Creating user name:	WinNT
#	Creation time:	15. 06. 2019 20:59

#	Modifying user name:	WinNT
#	Modification time:	15. 06. 2019 20:59

#	Program:	/corina/corina34_cracker 3.40 0067  02.08.2006

@<TRIPOS>MOLECULE
ASD05380056
  54   58    0    0    0
SMALL
NO_CHARGES


@<TRIPOS>ATOM
   1 C1            -0.2704     1.7436    -0.3083 C.ar    
   2 C2            -0.0037     0.3804    -0.5671 C.ar    
   3 C3             0.6310     2.7219    -0.7219 C.ar    
   4 C4             1.7811     2.3494    -1.3833 C.ar    
   5 C5             2.0461     1.0108    -1.6398 C.ar    
   6 C6             1.1686     0.0283    -1.2385 C.ar    
   7 N7            -0.8956    -0.5547    -0.1547 N.2     
   8 C8            -1.9853    -0.2271     0.4705 C.2     
   9 N9            -2.3226     1.0585     0.7616 N.am    
  10 C10           -1.5101     2.0810     0.4064 C.2     
  11 C11           -3.5187     1.3257     1.4396 C.ar    
  12 C12           -4.6881     1.5512     0.7252 C.ar    
  13 C13           -3.5389     1.3602     2.8275 C.ar    
  14 C14           -4.7202     1.6235     3.4932 C.ar    
  15 C15           -5.8817     1.8528     2.7790 C.ar    
  16 C16           -5.8659     1.8140     1.3966 C.ar    
  17 C17           -2.9246    -1.3265     0.8948 C.3     
  18 N18           -2.9250    -2.3860    -0.1169 N.pl3   
  19 C19           -4.0230    -3.2178    -0.2472 C.ar    
  20 N20           -5.0843    -3.0683     0.5376 N.ar    
  21 O21           -1.7991     3.2358     0.6604 O.2     
  22 C22           -4.0418    -4.2353    -1.2167 C.ar    
  23 C23           -5.1826    -5.0500    -1.3050 C.ar    
  24 N24           -6.1987    -4.8337    -0.4758 N.ar    
  25 C25           -6.1418    -3.8610     0.4194 C.ar    
  26 N26           -3.1704    -4.6639    -2.1629 N.2     
  27 C27           -3.6916    -5.6649    -2.8098 C.2     
  28 N28           -4.9336    -5.9417    -2.3175 N.pl3   
  29 C29           -2.4637    -1.9018     2.2356 C.3     
  30 C30            0.3503     4.1770    -0.4483 C.3     
  31 C31           -4.7431     1.6606     4.9996 C.3     
  32 N32           -7.2230    -3.6638     1.2625 N.pl3   
  33 H33            2.4821     3.1052    -1.7053 H       
  34 H34            2.9520     0.7367    -2.1600 H       
  35 H35            1.3859    -1.0097    -1.4430 H       
  36 H36           -4.6764     1.5214    -0.3543 H       
  37 H37           -2.6320     1.1808     3.3859 H       
  38 H38           -6.8041     2.0581     3.3018 H       
  39 H39           -6.7748     1.9934     0.8415 H       
  40 H40           -3.9320    -0.9236     0.9994 H       
  41 H41           -2.1555    -2.5044    -0.6955 H       
  42 H42           -3.2122    -6.1979    -3.6176 H       
  43 H43           -5.5308    -6.6410    -2.6262 H       
  44 H44           -1.4446    -2.2762     2.1393 H       
  45 H45           -2.4937    -1.1210     2.9955 H       
  46 H46           -3.1246    -2.7181     2.5271 H       
  47 H47            0.6700     4.4247     0.5639 H       
  48 H48            0.8964     4.7930    -1.1627 H       
  49 H49           -0.7186     4.3659    -0.5482 H       
  50 H50           -4.5366     2.6749     5.3413 H       
  51 H51           -5.7254     1.3501     5.3558 H       
  52 H52           -3.9840     0.9836     5.3913 H       
  53 H53           -7.1985    -2.9557     1.9251 H       
  54 H54           -8.0045    -4.2337     1.1904 H       
@<TRIPOS>BOND
   1    1    2 ar
   2    1    3 ar
   3    1   10 1
   4    2    7 1
   5    2    6 ar
   6    3    4 ar
   7    3   30 1
   8    4    5 ar
   9    4   33 1
  10    5    6 ar
  11    5   34 1
  12    6   35 1
  13    7    8 2
  14    8    9 1
  15    8   17 1
  16    9   10 am
  17    9   11 1
  18   10   21 2
  19   11   12 ar
  20   11   13 ar
  21   12   16 ar
  22   12   36 1
  23   13   14 ar
  24   13   37 1
  25   14   15 ar
  26   14   31 1
  27   15   16 ar
  28   15   38 1
  29   16   39 1
  30   17   18 1
  31   17   29 1
  32   17   40 1
  33   18   19 1
  34   18   41 1
  35   19   20 ar
  36   19   22 ar
  37   20   25 ar
  38   22   23 ar
  39   22   26 1
  40   23   24 ar
  41   23   28 1
  42   24   25 ar
  43   25   32 1
  44   26   27 2
  45   27   28 1
  46   27   42 1
  47   28   43 1
  48   29   44 1
  49   29   45 1
  50   29   46 1
  51   30   47 1
  52   30   48 1
  53   30   49 1
  54   31   50 1
  55   31   51 1
  56   31   52 1
  57   32   53 1
  58   32   54 1

#	End of record

