#	Name: ASD01900997
#	Creating user name:	WinNT
#	Creation time:	15. 06. 2019 19:53

#	Modifying user name:	WinNT
#	Modification time:	15. 06. 2019 19:53

#	Program:	/corina/corina34_cracker 3.40 0067  02.08.2006

@<TRIPOS>MOLECULE
ASD01900997
  58   62    0    0    0
SMALL
NO_CHARGES


@<TRIPOS>ATOM
   1 C1             0.4448     0.9353     0.1649 C.ar    
   2 C2             0.5538    -0.4371     0.0790 C.ar    
   3 C3             1.7702    -1.0284    -0.2248 C.ar    
   4 C4             2.8933    -0.2532    -0.4407 C.ar    
   5 C5             2.8016     1.1259    -0.3560 C.ar    
   6 C6             1.5672     1.7294    -0.0574 C.ar    
   7 N7             3.9072     1.9462    -0.5498 N.pl3   
   8 C8             3.6982     3.3061    -1.0593 C.3     
   9 N9             2.5592     3.9309    -0.3854 N.am    
  10 C10            1.5029     3.1991     0.0218 C.2     
  11 C11            2.5672     5.3128    -0.1587 C.ar    
  12 C12            3.3221     5.8422     0.8796 C.ar    
  13 C13            3.3294     7.2049     1.1025 C.ar    
  14 C14            2.5828     8.0451     0.2894 C.ar    
  15 C15            1.8284     7.5170    -0.7481 C.ar    
  16 C16            1.8246     6.1551    -0.9758 C.ar    
  17 O17            0.5056     3.7473     0.4507 O.2     
  18 O18            2.5902     9.3868     0.5098 O.3     
  19 C19            4.9579     4.1402    -0.8080 C.3     
  20 C20            3.4294     3.2467    -2.5657 C.3     
  21 C21            3.2778     4.6701    -3.1073 C.3     
  22 N22            4.5055     5.4305    -2.8405 N.3     
  23 C23            4.7619     5.5384    -1.3988 C.3     
  24 C24            4.4487     6.7584    -3.4660 C.3     
  25 C25            5.6917     7.5337    -3.1126 C.ar    
  26 C26            1.8882    10.2025    -0.4304 C.3     
  27 C27            6.7943     7.4892    -3.9458 C.ar    
  28 C28            7.9347     8.2000    -3.6223 C.ar    
  29 C29            7.9736     8.9559    -2.4656 C.ar    
  30 C30            6.8708     9.0008    -1.6316 C.ar    
  31 C31            5.7274     8.2935    -1.9588 C.ar    
  32 Cl32           6.9191     9.9494    -0.1785 Cl      
  33 H33           -0.5058     1.3913     0.3987 H       
  34 H34           -0.3149    -1.0555     0.2501 H       
  35 H35            1.8406    -2.1040    -0.2929 H       
  36 H36            3.8384    -0.7208    -0.6741 H       
  37 H37            4.8008     1.6254    -0.3513 H       
  38 H38            3.9031     5.1881     1.5129 H       
  39 H39            3.9163     7.6167     1.9102 H       
  40 H40            1.2474     8.1718    -1.3807 H       
  41 H41            1.2407     5.7445    -1.7863 H       
  42 H42            5.1340     4.2196     0.2648 H       
  43 H43            5.8132     3.6605    -1.2837 H       
  44 H44            4.2635     2.7541    -3.0652 H       
  45 H45            2.5121     2.6875    -2.7501 H       
  46 H46            3.1002     4.6327    -4.1821 H       
  47 H47            2.4351     5.1574    -2.6169 H       
  48 H48            3.9136     6.0218    -0.9142 H       
  49 H49            5.6611     6.1319    -1.2332 H       
  50 H50            4.3850     6.6478    -4.5485 H       
  51 H51            3.5712     7.2937    -3.1032 H       
  52 H52            0.8559     9.8611    -0.5080 H       
  53 H53            1.9037    11.2394    -0.0946 H       
  54 H54            2.3694    10.1292    -1.4056 H       
  55 H55            6.7645     6.8986    -4.8494 H       
  56 H56            8.7958     8.1646    -4.2733 H       
  57 H57            8.8649     9.5110    -2.2128 H       
  58 H58            4.8646     8.3316    -1.3104 H       
@<TRIPOS>BOND
   1    1    2 ar
   2    1    6 ar
   3    1   33 1
   4    2    3 ar
   5    2   34 1
   6    3    4 ar
   7    3   35 1
   8    4    5 ar
   9    4   36 1
  10    5    7 1
  11    5    6 ar
  12    6   10 1
  13    7    8 1
  14    7   37 1
  15    8    9 1
  16    8   20 1
  17    8   19 1
  18    9   10 am
  19    9   11 1
  20   10   17 2
  21   11   12 ar
  22   11   16 ar
  23   12   13 ar
  24   12   38 1
  25   13   14 ar
  26   13   39 1
  27   14   15 ar
  28   14   18 1
  29   15   16 ar
  30   15   40 1
  31   16   41 1
  32   18   26 1
  33   19   23 1
  34   19   42 1
  35   19   43 1
  36   20   21 1
  37   20   44 1
  38   20   45 1
  39   21   22 1
  40   21   46 1
  41   21   47 1
  42   22   23 1
  43   22   24 1
  44   23   48 1
  45   23   49 1
  46   24   25 1
  47   24   50 1
  48   24   51 1
  49   25   27 ar
  50   25   31 ar
  51   26   52 1
  52   26   53 1
  53   26   54 1
  54   27   28 ar
  55   27   55 1
  56   28   29 ar
  57   28   56 1
  58   29   30 ar
  59   29   57 1
  60   30   31 ar
  61   30   32 1
  62   31   58 1

#	End of record

