#	Name: ASD01001020
#	Creating user name:	WinNT
#	Creation time:	15. 06. 2019 18:54

#	Modifying user name:	WinNT
#	Modification time:	15. 06. 2019 18:54

#	Program:	/corina/corina34_cracker 3.40 0067  02.08.2006

@<TRIPOS>MOLECULE
ASD01001020
  49   50    0    0    0
SMALL
NO_CHARGES


@<TRIPOS>ATOM
   1 C1             0.2634     0.6574     2.0600 C.ar    
   2 C2             0.6384    -0.6251     1.7061 C.ar    
   3 C3             0.0192     1.6013     1.0800 C.ar    
   4 C4             0.7692    -0.9638     0.3723 C.ar    
   5 C5             0.1500     1.2626    -0.2538 C.ar    
   6 C6             0.5245    -0.0201    -0.6077 C.ar    
   7 C7             1.1791    -2.3618    -0.0135 C.3     
   8 C8             0.7038    -3.3324     1.0368 C.ar    
   9 S9             0.4371    -2.7899    -1.6125 S.3     
  10 C10           -0.5934    -3.2596     1.5088 C.ar    
  11 C11            1.5633    -4.2992     1.5240 C.ar    
  12 C12           -1.0294    -4.1500     2.4722 C.ar    
  13 C13            1.1274    -5.1896     2.4874 C.ar    
  14 C14           -0.1682    -5.1134     2.9633 C.ar    
  15 C15            1.1345    -4.4280    -1.9604 C.3     
  16 C16            0.6893    -4.8870    -3.3504 C.3     
  17 N17            1.2635    -3.9962    -4.3675 N.3     
  18 H18            2.2718    -4.0076    -4.3306 H       
  19 H19            0.9327    -4.2391    -5.2893 H       
  20 C20            2.7034    -2.4346    -0.1227 C.3     
  21 C21            3.1775    -1.5240    -1.2572 C.3     
  22 C22            4.8476    -2.1739     1.1331 C.3     
  23 C23            3.3316    -1.9767     1.1951 C.3     
  24 C24            1.1657    -6.2965    -3.5904 C.2     
  25 O25            2.1567    -6.4947    -4.2526 O.2     
  26 O26            0.4890    -7.3316    -3.0686 O.3     
  27 H27            0.1569     0.9208     3.1019 H       
  28 H28            0.8296    -1.3625     2.4717 H       
  29 H29           -0.2741     2.6033     1.3565 H       
  30 H30           -0.0415     1.9999    -1.0194 H       
  31 H31            0.6274    -0.2845    -1.6497 H       
  32 H32           -1.2662    -2.5069     1.1252 H       
  33 H33            2.5754    -4.3592     1.1517 H       
  34 H34           -2.0426    -4.0926     2.8415 H       
  35 H35            1.7988    -5.9451     2.8678 H       
  36 H36           -0.5088    -5.8090     3.7159 H       
  37 H37            2.2226    -4.3742    -1.9268 H       
  38 H38            0.7825    -5.1389    -1.2129 H       
  39 H39           -0.3985    -4.8557    -3.4123 H       
  40 H40            3.0042    -3.4613    -0.3311 H       
  41 H41            4.2661    -1.5436    -1.3080 H       
  42 H42            2.7632    -1.8753    -2.2022 H       
  43 H43            2.8408    -0.5044    -1.0695 H       
  44 H44            5.2572    -1.5859     0.3118 H       
  45 H45            5.2951    -1.8477     2.0720 H       
  46 H46            5.0704    -3.2285     0.9715 H       
  47 H47            3.1087    -0.9220     1.3567 H       
  48 H48            2.9220    -2.5646     2.0165 H       
  49 H49            0.8330    -8.2170    -3.2497 H       
@<TRIPOS>BOND
   1    1    2 ar
   2    1    3 ar
   3    1   27 1
   4    2    4 ar
   5    2   28 1
   6    3    5 ar
   7    3   29 1
   8    4    6 ar
   9    4    7 1
  10    5    6 ar
  11    5   30 1
  12    6   31 1
  13    7    8 1
  14    7    9 1
  15    7   20 1
  16    8   10 ar
  17    8   11 ar
  18    9   15 1
  19   10   12 ar
  20   10   32 1
  21   11   13 ar
  22   11   33 1
  23   12   14 ar
  24   12   34 1
  25   13   14 ar
  26   13   35 1
  27   14   36 1
  28   15   16 1
  29   15   37 1
  30   15   38 1
  31   16   17 1
  32   16   24 1
  33   16   39 1
  34   17   18 1
  35   17   19 1
  36   20   21 1
  37   20   23 1
  38   20   40 1
  39   21   41 1
  40   21   42 1
  41   21   43 1
  42   22   23 1
  43   22   44 1
  44   22   45 1
  45   22   46 1
  46   23   47 1
  47   23   48 1
  48   24   25 2
  49   24   26 1
  50   26   49 1

#	End of record

