#	Name: ASD03520006
#	Creating user name:	WinNT
#	Creation time:	15. 06. 2019 20:42

#	Modifying user name:	WinNT
#	Modification time:	15. 06. 2019 20:42

#	Program:	/corina/corina34_cracker 3.40 0067  02.08.2006

@<TRIPOS>MOLECULE
ASD03520006
  73   76    0    0    0
SMALL
NO_CHARGES


@<TRIPOS>ATOM
   1 C1            -0.0023     1.6174     0.2630 C.3     
   2 C2             0.0908     0.0992     0.3820 C.3     
   3 C3            -1.2988    -0.5468     0.5004 C.3     
   4 C4            -1.9881     0.0741     1.7016 C.3     
   5 C5            -2.1879     1.5810     1.3869 C.3     
   6 C6            -0.8166     2.2288     1.4141 C.3     
   7 C7             0.7980    -0.4632    -0.8546 C.3     
   8 C8             0.8199    -1.9610    -0.7795 C.2     
   9 C9            -0.4904    -2.6819    -0.5243 C.3     
  10 C10           -1.1471    -2.0547     0.7096 C.3     
  11 C11            2.1463     0.1517    -1.0143 C.2     
  12 C12            3.2664    -0.5413    -1.1445 C.2     
  13 C13            3.2246    -2.0133    -1.1272 C.2     
  14 C14            1.9287    -2.6758    -0.9134 C.2     
  15 C15           -3.4288    -0.3840     1.9543 C.3     
  16 C16           -4.0226     0.7817     2.7911 C.3     
  17 C17           -3.1751     2.0347     2.4574 C.3     
  18 C18           -4.0565     3.1339     1.9227 C.2     
  19 O19           -2.4629     2.4893     3.6383 O.3     
  20 O20           -4.7805     2.9223     0.9796 O.2     
  21 C21           -4.0343     4.4971     2.5647 C.3     
  22 O22           -4.9946     5.3604     1.9008 O.3     
  23 C23           -2.8105     1.7432    -0.0012 C.3     
  24 O24            1.3162     2.1681     0.2809 O.3     
  25 C25           -0.0256    -0.0685    -2.0821 C.3     
  26 Cl26           1.0434    -0.3233     1.8534 Cl      
  27 O27            4.2388    -2.6666    -1.2863 O.2     
  28 C28           -5.4834     1.0168     2.4017 C.3     
  29 C29           -3.2038     2.8141     4.7094 C.2     
  30 O30           -4.4067     2.7096     4.6661 O.2     
  31 C31           -2.5352     3.3091     5.9660 C.3     
  32 C32           -3.5978     3.6062     7.0260 C.3     
  33 C33           -5.0993     6.6189     2.3560 C.2     
  34 C34           -6.0749     7.5728     1.7163 C.3     
  35 O35           -4.4113     6.9868     3.2786 O.2     
  36 C36           -5.9958     8.9300     2.4181 C.3     
  37 H37           -0.4805     1.8712    -0.6832 H       
  38 H38           -1.8769    -0.3437    -0.4010 H       
  39 H39           -1.3767    -0.0505     2.5954 H       
  40 H40           -0.3272     2.0219     2.3658 H       
  41 H41           -0.9117     3.3052     1.2709 H       
  42 H42           -1.1464    -2.5695    -1.3875 H       
  43 H43           -0.2992    -3.7394    -0.3419 H       
  44 H44           -0.5245    -2.2388     1.5851 H       
  45 H45           -2.1299    -2.5003     0.8636 H       
  46 H46            2.2136     1.2296    -1.0239 H       
  47 H47            4.2092    -0.0283    -1.2637 H       
  48 H48            1.8801    -3.7536    -0.8646 H       
  49 H49           -3.9680    -0.4974     1.0138 H       
  50 H50           -3.4437    -1.3137     2.5231 H       
  51 H51           -3.9505     0.5535     3.8545 H       
  52 H52           -4.2954     4.4064     3.6191 H       
  53 H53           -3.0363     4.9256     2.4731 H       
  54 H54           -3.7594     1.2080    -0.0386 H       
  55 H55           -2.9818     2.8009    -0.2013 H       
  56 H56           -2.1340     1.3361    -0.7527 H       
  57 H57            1.3408     3.1321     0.2091 H       
  58 H58           -0.0888     1.0180    -2.1433 H       
  59 H59            0.4539    -0.4557    -2.9812 H       
  60 H60           -1.0285    -0.4865    -1.9965 H       
  61 H61           -6.0650     0.1197     2.6141 H       
  62 H62           -5.8825     1.8530     2.9759 H       
  63 H63           -5.5435     1.2452     1.3376 H       
  64 H64           -1.8529     2.5455     6.3395 H       
  65 H65           -1.9769     4.2191     5.7462 H       
  66 H66           -4.2801     4.3698     6.6525 H       
  67 H67           -4.1561     2.6962     7.2458 H       
  68 H68           -3.1142     3.9642     7.9349 H       
  69 H69           -5.8263     7.6939     0.6619 H       
  70 H70           -7.0854     7.1747     1.8079 H       
  71 H71           -4.9852     9.3281     2.3265 H       
  72 H72           -6.7015     9.6200     1.9554 H       
  73 H73           -6.2443     8.8089     3.4725 H       
@<TRIPOS>BOND
   1    1    2 1
   2    1   24 1
   3    1    6 1
   4    1   37 1
   5    2    7 1
   6    2   26 1
   7    2    3 1
   8    3    4 1
   9    3   10 1
  10    3   38 1
  11    4    5 1
  12    4   15 1
  13    4   39 1
  14    5    6 1
  15    5   17 1
  16    5   23 1
  17    6   40 1
  18    6   41 1
  19    7    8 1
  20    7   11 1
  21    7   25 1
  22    8    9 1
  23    8   14 2
  24    9   10 1
  25    9   42 1
  26    9   43 1
  27   10   44 1
  28   10   45 1
  29   11   12 2
  30   11   46 1
  31   12   13 1
  32   12   47 1
  33   13   14 1
  34   13   27 2
  35   14   48 1
  36   15   16 1
  37   15   49 1
  38   15   50 1
  39   16   17 1
  40   16   28 1
  41   16   51 1
  42   17   18 1
  43   17   19 1
  44   18   20 2
  45   18   21 1
  46   19   29 1
  47   21   22 1
  48   21   52 1
  49   21   53 1
  50   22   33 1
  51   23   54 1
  52   23   55 1
  53   23   56 1
  54   24   57 1
  55   25   58 1
  56   25   59 1
  57   25   60 1
  58   28   61 1
  59   28   62 1
  60   28   63 1
  61   29   30 2
  62   29   31 1
  63   31   32 1
  64   31   64 1
  65   31   65 1
  66   32   66 1
  67   32   67 1
  68   32   68 1
  69   33   34 1
  70   33   35 2
  71   34   36 1
  72   34   69 1
  73   34   70 1
  74   36   71 1
  75   36   72 1
  76   36   73 1

#	End of record

