#	Name: ASD04912004
#	Creating user name:	WinNT
#	Creation time:	15. 06. 2019 20:56

#	Modifying user name:	WinNT
#	Modification time:	15. 06. 2019 20:56

#	Program:	/corina/corina34_cracker 3.40 0067  02.08.2006

@<TRIPOS>MOLECULE
ASD04912004
  76   78    0    0    0
SMALL
NO_CHARGES


@<TRIPOS>ATOM
   1 C1            -1.1850     3.3541     0.2568 C.ar    
   2 C2            -2.2961     3.9208    -0.3502 C.ar    
   3 C3            -3.4872     3.2237    -0.3993 C.ar    
   4 C4            -3.5725     1.9554     0.1589 C.ar    
   5 C5            -2.4600     1.3888     0.7663 C.ar    
   6 C6            -1.2679     2.0847     0.8097 C.ar    
   7 O7            -0.0125     4.0411     0.3049 O.3     
   8 C8             1.0909     3.3971     0.9451 C.3     
   9 F9             1.3828     2.2013     0.2802 F       
  10 F10            2.2085     4.2376     0.9053 F       
  11 F11            0.7616     3.1219     2.2766 F       
  12 N12           -4.7811     1.2476     0.1098 N.am    
  13 C13           -4.7715    -0.0949    -0.0087 C.2     
  14 O14           -3.7199    -0.6833    -0.1713 O.2     
  15 N15           -5.9274    -0.7851     0.0529 N.am    
  16 C16           -7.1819    -0.0882     0.3475 C.3     
  17 C17           -7.8167     0.3694    -0.9404 C.ar    
  18 C18           -8.7020    -0.4607    -1.6049 C.ar    
  19 C19           -9.2869    -0.0477    -2.7841 C.ar    
  20 C20           -8.9839     1.2106    -3.3065 C.ar    
  21 C21           -8.0900     2.0431    -2.6312 C.ar    
  22 C22           -7.5161     1.6200    -1.4501 C.ar    
  23 C23           -9.6067     1.6595    -4.5700 C.2     
  24 O24          -10.3845     0.9323    -5.1562 O.2     
  25 N25           -9.3120     2.8752    -5.0719 N.am    
  26 C26           -9.9291     3.3200    -6.3239 C.3     
  27 C27           -9.4289     4.7243    -6.6682 C.3     
  28 C28          -10.0638     5.1819    -7.9561 C.2     
  29 O29          -10.8369     4.4590    -8.5388 O.2     
  30 O30           -9.7703     6.3926    -8.4559 O.3     
  31 C31           -5.9294    -2.2324    -0.1746 C.3     
  32 C32           -5.3345    -2.5330    -1.5517 C.3     
  33 C33           -5.3366    -4.0444    -1.7893 C.3     
  34 C34           -4.4973    -4.7315    -0.7102 C.3     
  35 C35           -5.0923    -4.4309     0.6669 C.3     
  36 C36           -5.0902    -2.9194     0.9045 C.3     
  37 C37           -4.4994    -6.2429    -0.9478 C.3     
  38 C38           -3.9045    -6.5435    -2.3250 C.3     
  39 C39           -3.6602    -6.9300     0.1313 C.3     
  40 C40           -5.9357    -6.7667    -0.8874 C.3     
  41 H41           -2.2298     4.9076    -0.7841 H       
  42 H42           -4.3523     3.6652    -0.8716 H       
  43 H43           -2.5257     0.4022     1.2008 H       
  44 H44           -0.4025     1.6440     1.2822 H       
  45 H45           -5.6245     1.7239     0.1611 H       
  46 H46           -7.8604    -0.7652     0.8666 H       
  47 H47           -6.9776     0.7763     0.9791 H       
  48 H48           -8.9353    -1.4343    -1.1997 H       
  49 H49           -9.9775    -0.6968    -3.3020 H       
  50 H50           -7.8513     3.0179    -3.0302 H       
  51 H51           -6.8242     2.2632    -0.9266 H       
  52 H52           -8.6913     3.4555    -4.6041 H       
  53 H53           -9.6609     2.6320    -7.1257 H       
  54 H54          -11.0128     3.3385    -6.2083 H       
  55 H55           -9.6971     5.4123    -5.8664 H       
  56 H56           -8.3452     4.7059    -6.7838 H       
  57 H57          -10.2021     6.6420    -9.2844 H       
  58 H58           -6.9526    -2.6055    -0.1315 H       
  59 H59           -5.9324    -2.0435    -2.3205 H       
  60 H60           -4.3112    -2.1598    -1.5948 H       
  61 H61           -6.3598    -4.4175    -1.7463 H       
  62 H62           -4.9127    -4.2585    -2.7705 H       
  63 H63           -3.4741    -4.3583    -0.7533 H       
  64 H64           -6.1155    -4.8040     0.7100 H       
  65 H65           -4.4944    -4.9204     1.4357 H       
  66 H66           -4.0669    -2.5463     0.8615 H       
  67 H67           -5.5140    -2.7053     1.8857 H       
  68 H68           -2.8812    -6.1703    -2.3681 H       
  69 H69           -3.9060    -7.6203    -2.4943 H       
  70 H70           -4.5024    -6.0540    -3.0938 H       
  71 H71           -4.0840    -6.7158     1.1124 H       
  72 H72           -3.6616    -8.0067    -0.0380 H       
  73 H73           -2.6369    -6.5568     0.0882 H       
  74 H74           -6.5336    -6.2772    -1.6562 H       
  75 H75           -5.9372    -7.8435    -1.0567 H       
  76 H76           -6.3595    -6.5525     0.0937 H       
@<TRIPOS>BOND
   1    1    2 ar
   2    1    7 1
   3    1    6 ar
   4    2    3 ar
   5    2   41 1
   6    3    4 ar
   7    3   42 1
   8    4    5 ar
   9    4   12 1
  10    5    6 ar
  11    5   43 1
  12    6   44 1
  13    7    8 1
  14    8    9 1
  15    8   10 1
  16    8   11 1
  17   12   13 am
  18   12   45 1
  19   13   14 2
  20   13   15 am
  21   15   16 1
  22   15   31 1
  23   16   17 1
  24   16   46 1
  25   16   47 1
  26   17   18 ar
  27   17   22 ar
  28   18   19 ar
  29   18   48 1
  30   19   20 ar
  31   19   49 1
  32   20   21 ar
  33   20   23 1
  34   21   22 ar
  35   21   50 1
  36   22   51 1
  37   23   24 2
  38   23   25 am
  39   25   26 1
  40   25   52 1
  41   26   27 1
  42   26   53 1
  43   26   54 1
  44   27   28 1
  45   27   55 1
  46   27   56 1
  47   28   29 2
  48   28   30 1
  49   30   57 1
  50   31   32 1
  51   31   36 1
  52   31   58 1
  53   32   33 1
  54   32   59 1
  55   32   60 1
  56   33   34 1
  57   33   61 1
  58   33   62 1
  59   34   35 1
  60   34   37 1
  61   34   63 1
  62   35   36 1
  63   35   64 1
  64   35   65 1
  65   36   66 1
  66   36   67 1
  67   37   38 1
  68   37   39 1
  69   37   40 1
  70   38   68 1
  71   38   69 1
  72   38   70 1
  73   39   71 1
  74   39   72 1
  75   39   73 1
  76   40   74 1
  77   40   75 1
  78   40   76 1

#	End of record

