#	Name: ASD01560041
#	Creating user name:	WinNT
#	Creation time:	15. 06. 2019 19:22

#	Modifying user name:	WinNT
#	Modification time:	15. 06. 2019 19:22

#	Program:	/corina/corina34_cracker 3.40 0067  02.08.2006

@<TRIPOS>MOLECULE
ASD01560041
  38   41    0    0    0
SMALL
NO_CHARGES


@<TRIPOS>ATOM
   1 O1             0.0021    -0.0041     0.0020 O.2     
   2 C2            -0.0144     1.2117     0.0087 C.2     
   3 N3             1.1471     1.8906     0.0013 N.am    
   4 C4             1.1546     3.2600     0.0090 C.2     
   5 C5             2.4615     4.0103     0.0005 C.3     
   6 S6             3.2207     3.9182     1.6411 S.3     
   7 C7             4.6879     4.8501     1.3520 C.2     
   8 N8             5.5891     5.0386     2.3711 N.am    
   9 C9             6.7136     5.7512     2.1545 C.2     
  10 O10            7.5138     5.9204     3.0538 O.2     
  11 N11            6.9440     6.2742     0.9335 N.am    
  12 C12            6.0323     6.0745    -0.0711 C.2     
  13 N13            4.9169     5.3571     0.1592 N.2     
  14 C14            6.5274     6.7197    -1.2012 C.2     
  15 C15            7.7539     7.3059    -0.8411 C.2     
  16 N16            7.9937     7.0405     0.4159 N.2     
  17 C17            5.8828     6.7778    -2.5337 C.ar    
  18 C18            5.7275     8.0021    -3.1836 C.ar    
  19 C19            5.1267     8.0497    -4.4248 C.ar    
  20 C20            4.6783     6.8864    -5.0245 C.ar    
  21 C21            4.8296     5.6690    -4.3849 C.ar    
  22 C22            5.4340     5.6078    -3.1460 C.ar    
  23 C23           -0.0152     3.9348     0.0238 C.2     
  24 C24           -1.2304     3.2069     0.0310 C.2     
  25 O25           -2.2979     3.7930     0.0440 O.2     
  26 N26           -1.1944     1.8590     0.0179 N.am    
  27 Cl27          -0.0294     5.6707     0.0344 Cl      
  28 H28            1.9871     1.4056    -0.0094 H       
  29 H29            3.1313     3.5651    -0.7352 H       
  30 H30            2.2800     5.0535    -0.2577 H       
  31 H31            5.4167     4.6594     3.2470 H       
  32 H32            8.3927     7.8804    -1.4956 H       
  33 H33            6.0764     8.9110    -2.7161 H       
  34 H34            5.0058     8.9971    -4.9290 H       
  35 H35            4.2081     6.9288    -5.9958 H       
  36 H36            4.4773     4.7642    -4.8579 H       
  37 H37            5.5518     4.6568    -2.6478 H       
  38 H38           -2.0224     1.3537     0.0227 H       
@<TRIPOS>BOND
   1    1    2 2
   2    2    3 am
   3    2   26 am
   4    3    4 1
   5    3   28 1
   6    4    5 1
   7    4   23 2
   8    5    6 1
   9    5   29 1
  10    5   30 1
  11    6    7 1
  12    7    8 1
  13    7   13 2
  14    8    9 am
  15    8   31 1
  16    9   10 2
  17    9   11 am
  18   11   12 1
  19   11   16 1
  20   12   13 1
  21   12   14 2
  22   14   15 1
  23   14   17 1
  24   15   16 2
  25   15   32 1
  26   17   18 ar
  27   17   22 ar
  28   18   19 ar
  29   18   33 1
  30   19   20 ar
  31   19   34 1
  32   20   21 ar
  33   20   35 1
  34   21   22 ar
  35   21   36 1
  36   22   37 1
  37   23   24 1
  38   23   27 1
  39   24   25 2
  40   24   26 am
  41   26   38 1

#	End of record

