#	Name: ASD01880963
#	Creating user name:	WinNT
#	Creation time:	15. 06. 2019 19:41

#	Modifying user name:	WinNT
#	Modification time:	15. 06. 2019 19:41

#	Program:	/corina/corina34_cracker 3.40 0067  02.08.2006

@<TRIPOS>MOLECULE
ASD01880963
  35   37    0    0    0
SMALL
NO_CHARGES


@<TRIPOS>ATOM
   1 N1            -0.0158     1.3149     0.0093 N.ar    
   2 C2             0.0021    -0.0041     0.0020 C.ar    
   3 N3             1.1334    -0.6826    -0.0120 N.ar    
   4 C4             2.2998    -0.0570    -0.0198 C.ar    
   5 C5             2.3223     1.3279    -0.0130 C.ar    
   6 C6             1.1128     2.0081     0.0022 C.ar    
   7 C7             3.6293     2.0782    -0.0209 C.3     
   8 O8             4.7131     1.1470    -0.0354 O.3     
   9 C9             5.9684     1.6626    -0.0440 C.ar    
  10 C10            7.0694     0.8112    -0.0582 C.ar    
  11 C11            8.3388     1.3329    -0.0674 C.ar    
  12 C12            8.5351     2.7181    -0.0627 C.ar    
  13 C13            7.4255     3.5699    -0.0484 C.ar    
  14 C14            6.1527     3.0394    -0.0446 C.ar    
  15 C15            9.7119     0.7086    -0.0835 C.3     
  16 N16           10.6677     1.8219    -0.0873 N.am    
  17 C17            9.9842     2.9791    -0.0753 C.2     
  18 O18           10.4905     4.0846    -0.0752 O.2     
  19 Cl19          -1.5026    -0.8698     0.0117 Cl      
  20 Cl20           7.6504     5.2913    -0.0418 Cl      
  21 Cl21           1.0794     3.7438     0.0107 Cl      
  22 C22           12.6208     1.6558    -1.5499 C.3     
  23 C23           12.1270     1.6933    -0.1023 C.3     
  24 H24            3.2219    -0.6191    -0.0309 H       
  25 H25            3.6806     2.7092    -0.9082 H       
  26 H26            3.6966     2.7003     0.8716 H       
  27 H27            6.9249    -0.2591    -0.0616 H       
  28 H28            5.2959     3.6968    -0.0339 H       
  29 H29            9.8550     0.0949     0.8058 H       
  30 H30            9.8379     0.1034    -0.9813 H       
  31 H31           13.7066     1.5601    -1.5611 H       
  32 H32           12.1757     0.8037    -2.0637 H       
  33 H33           12.3321     2.5768    -2.0563 H       
  34 H34           12.5721     2.5454     0.4114 H       
  35 H35           12.4158     0.7723     0.4041 H       
@<TRIPOS>BOND
   1    1    2 ar
   2    1    6 ar
   3    2    3 ar
   4    2   19 1
   5    3    4 ar
   6    4    5 ar
   7    4   24 1
   8    5    6 ar
   9    5    7 1
  10    6   21 1
  11    7    8 1
  12    7   25 1
  13    7   26 1
  14    8    9 1
  15    9   10 ar
  16    9   14 ar
  17   10   11 ar
  18   10   27 1
  19   11   12 ar
  20   11   15 1
  21   12   13 ar
  22   12   17 1
  23   13   14 ar
  24   13   20 1
  25   14   28 1
  26   15   16 1
  27   15   29 1
  28   15   30 1
  29   16   17 am
  30   16   23 1
  31   17   18 2
  32   22   23 1
  33   22   31 1
  34   22   32 1
  35   22   33 1
  36   23   34 1
  37   23   35 1

#	End of record

