#	Name: ASD01420029
#	Creating user name:	WinNT
#	Creation time:	15. 06. 2019 19:20

#	Modifying user name:	WinNT
#	Modification time:	15. 06. 2019 19:20

#	Program:	/corina/corina34_cracker 3.40 0067  02.08.2006

@<TRIPOS>MOLECULE
ASD01420029
  34   36    0    0    0
SMALL
NO_CHARGES


@<TRIPOS>ATOM
   1 C1            -0.0162     1.3411     0.0094 C.2     
   2 N2             0.0021    -0.0041     0.0020 N.am    
   3 C3             1.2636    -0.4708    -0.0125 C.2     
   4 C4             2.1903     0.6754    -0.0152 C.ar    
   5 C5             3.5758     0.8061    -0.0278 C.ar    
   6 C6             4.1465     2.0779    -0.0264 C.ar    
   7 C7             3.3469     3.2016    -0.0127 C.ar    
   8 C8             1.9641     3.0839     0.0003 C.ar    
   9 C9             1.3787     1.8294    -0.0013 C.ar    
  10 O10           -1.0115     2.0372     0.0181 O.2     
  11 O11            1.5856    -1.6423    -0.0213 O.2     
  12 C12           -1.1945    -0.8493     0.0097 C.3     
  13 C13           -1.6188    -1.1320    -1.4084 C.ar    
  14 C14           -1.1220    -2.2401    -2.0697 C.ar    
  15 C15           -1.5095    -2.5014    -3.3696 C.ar    
  16 C16           -2.3979    -1.6510    -4.0117 C.ar    
  17 C17           -2.8950    -0.5399    -3.3461 C.ar    
  18 C18           -2.5087    -0.2861    -2.0442 C.ar    
  19 O19           -2.7802    -1.9057    -5.2907 O.3     
  20 C20           -3.6975    -0.9875    -5.8886 C.3     
  21 O21            4.3653    -0.2963    -0.0408 O.3     
  22 H22            5.2213     2.1840    -0.0357 H       
  23 H23            3.8008     4.1816    -0.0118 H       
  24 H24            1.3459     3.9694     0.0117 H       
  25 H25           -0.9727    -1.7884     0.5166 H       
  26 H26           -1.9995    -0.3347     0.5341 H       
  27 H27           -0.4301    -2.9016    -1.5695 H       
  28 H28           -1.1208    -3.3668    -3.8858 H       
  29 H29           -3.5867     0.1236    -3.8437 H       
  30 H30           -2.8991     0.5761    -1.5239 H       
  31 H31           -4.6189    -0.9636    -5.3068 H       
  32 H32           -3.2542     0.0080    -5.9082 H       
  33 H33           -3.9191    -1.3067    -6.9070 H       
  34 H34            4.5859    -0.6116    -0.9279 H       
@<TRIPOS>BOND
   1    1    2 am
   2    1    9 1
   3    1   10 2
   4    2    3 am
   5    2   12 1
   6    3    4 1
   7    3   11 2
   8    4    5 ar
   9    4    9 ar
  10    5    6 ar
  11    5   21 1
  12    6    7 ar
  13    6   22 1
  14    7    8 ar
  15    7   23 1
  16    8    9 ar
  17    8   24 1
  18   12   13 1
  19   12   25 1
  20   12   26 1
  21   13   14 ar
  22   13   18 ar
  23   14   15 ar
  24   14   27 1
  25   15   16 ar
  26   15   28 1
  27   16   17 ar
  28   16   19 1
  29   17   18 ar
  30   17   29 1
  31   18   30 1
  32   19   20 1
  33   20   31 1
  34   20   32 1
  35   20   33 1
  36   21   34 1

#	End of record

