#	Name: ASD01880871
#	Creating user name:	WinNT
#	Creation time:	15. 06. 2019 19:41

#	Modifying user name:	WinNT
#	Modification time:	15. 06. 2019 19:41

#	Program:	/corina/corina34_cracker 3.40 0067  02.08.2006

@<TRIPOS>MOLECULE
ASD01880871
  53   56    0    0    0
SMALL
NO_CHARGES


@<TRIPOS>ATOM
   1 N1             0.0644     1.3803    -0.6395 N.ar    
   2 C2             0.1103     0.0792    -0.8735 C.ar    
   3 N3             1.2233    -0.6174    -0.7092 N.ar    
   4 C4             2.3390    -0.0311    -0.3020 C.ar    
   5 C5             2.3338     1.3274    -0.0468 C.ar    
   6 C6             1.1455     2.0331    -0.2289 C.ar    
   7 C7             3.5836     2.0292     0.4184 C.3     
   8 O8             4.6498     1.0836     0.5236 O.3     
   9 C9             5.8542     1.5560     0.9334 C.ar    
  10 C10            6.9354     0.6889     1.0575 C.ar    
  11 C11            8.1532     1.1682     1.4717 C.ar    
  12 C12            8.3154     2.5251     1.7706 C.ar    
  13 C13            7.2263     3.3918     1.6439 C.ar    
  14 C14            6.0080     2.9065     1.2233 C.ar    
  15 C15            9.4939     0.5176     1.7055 C.3     
  16 N16           10.3967     1.5867     2.1471 N.am    
  17 C17            9.7127     2.7431     2.1833 C.2     
  18 O18           10.1808     3.8167     2.5097 O.2     
  19 C19            7.3860     4.8559     1.9630 C.3     
  20 O20            1.0944     3.3662     0.0093 O.3     
  21 C21           -0.1124     3.9845    -0.0805 C.ar    
  22 C22           -1.0439     3.8417     0.9379 C.ar    
  23 C23           -2.2697     4.4717     0.8445 C.ar    
  24 C24           -2.5688     5.2441    -0.2627 C.ar    
  25 C25           -1.6424     5.3880    -1.2789 C.ar    
  26 C26           -0.4131     4.7644    -1.1879 C.ar    
  27 O27           -1.0106    -0.5562    -1.2914 O.3     
  28 C28           -0.9089    -1.9615    -1.5302 C.3     
  29 C29           12.6681     1.6212     1.2411 C.3     
  30 C30           11.8107     1.4208     2.4924 C.3     
  31 H31            3.2425    -0.6080    -0.1704 H       
  32 H32            3.8542     2.8035    -0.2996 H       
  33 H33            3.4038     2.4839     1.3925 H       
  34 H34            6.8164    -0.3598     0.8285 H       
  35 H35            5.1669     3.5768     1.1253 H       
  36 H36            9.4101    -0.2456     2.4793 H       
  37 H37            9.8620     0.0747     0.7800 H       
  38 H38            7.6850     5.3934     1.0631 H       
  39 H39            6.4386     5.2541     2.3262 H       
  40 H40            8.1501     4.9793     2.7305 H       
  41 H41           -0.8108     3.2383     1.8028 H       
  42 H42           -2.9952     4.3606     1.6368 H       
  43 H43           -3.5279     5.7355    -0.3340 H       
  44 H44           -1.8785     5.9915    -2.1429 H       
  45 H45            0.3104     4.8774    -1.9818 H       
  46 H46           -1.8747    -2.3449    -1.8593 H       
  47 H47           -0.1624    -2.1456    -2.3029 H       
  48 H48           -0.6119    -2.4657    -0.6106 H       
  49 H49           12.5057     2.6241     0.8462 H       
  50 H50           13.7202     1.4978     1.4979 H       
  51 H51           12.3892     0.8846     0.4877 H       
  52 H52           12.0896     2.1575     3.2457 H       
  53 H53           11.9731     0.4179     2.8872 H       
@<TRIPOS>BOND
   1    1    2 ar
   2    1    6 ar
   3    2    3 ar
   4    2   27 1
   5    3    4 ar
   6    4    5 ar
   7    4   31 1
   8    5    6 ar
   9    5    7 1
  10    6   20 1
  11    7    8 1
  12    7   32 1
  13    7   33 1
  14    8    9 1
  15    9   10 ar
  16    9   14 ar
  17   10   11 ar
  18   10   34 1
  19   11   12 ar
  20   11   15 1
  21   12   13 ar
  22   12   17 1
  23   13   14 ar
  24   13   19 1
  25   14   35 1
  26   15   16 1
  27   15   36 1
  28   15   37 1
  29   16   17 am
  30   16   30 1
  31   17   18 2
  32   19   38 1
  33   19   39 1
  34   19   40 1
  35   20   21 1
  36   21   22 ar
  37   21   26 ar
  38   22   23 ar
  39   22   41 1
  40   23   24 ar
  41   23   42 1
  42   24   25 ar
  43   24   43 1
  44   25   26 ar
  45   25   44 1
  46   26   45 1
  47   27   28 1
  48   28   46 1
  49   28   47 1
  50   28   48 1
  51   29   30 1
  52   29   49 1
  53   29   50 1
  54   29   51 1
  55   30   52 1
  56   30   53 1

#	End of record

