#	Name: ASD01914614
#	Creating user name:	WinNT
#	Creation time:	15. 06. 2019 20:03

#	Modifying user name:	WinNT
#	Modification time:	15. 06. 2019 20:03

#	Program:	/corina/corina34_cracker 3.40 0067  02.08.2006

@<TRIPOS>MOLECULE
ASD01914614
  58   63    0    0    0
SMALL
NO_CHARGES


@<TRIPOS>ATOM
   1 S1            -0.0218     1.7544     0.0117 S.3     
   2 C2             0.0021    -0.0041     0.0020 C.2     
   3 N3             1.2177    -0.4342    -0.0119 N.2     
   4 C4             2.2042     0.4630    -0.0165 C.ar    
   5 C5             1.7396     1.7868    -0.0050 C.ar    
   6 C6             3.6022     0.2445    -0.0303 C.ar    
   7 C7             4.4650     1.2950    -0.0318 C.ar    
   8 C8             3.9961     2.6028    -0.0202 C.ar    
   9 C9             2.6431     2.8497    -0.0074 C.ar    
  10 C10           -1.1992    -0.8656     0.0093 C.2     
  11 O11           -2.3064    -0.3644     0.0230 O.2     
  12 N12           -1.0666    -2.2068     0.0008 N.am    
  13 C13           -2.2571    -3.0606     0.0080 C.3     
  14 C14           -1.8309    -4.5300    -0.0041 C.3     
  15 C15           -3.0742    -5.4217     0.0035 C.3     
  16 C16           -3.9214    -5.1261    -1.2358 C.3     
  17 C17           -4.3475    -3.6567    -1.2237 C.3     
  18 C18           -5.1698    -3.3745     0.0353 C.3     
  19 C19           -4.3227    -3.6701     1.2746 C.3     
  20 C20           -3.0794    -2.7784     1.2670 C.3     
  21 C21           -3.8966    -5.1395     1.2625 C.3     
  22 C22           -3.1042    -2.7650    -1.2313 C.3     
  23 N23           -2.6662    -6.8287    -0.0081 N.am    
  24 C24           -3.5994    -7.8010    -0.0041 C.2     
  25 O25           -4.7793    -7.5107     0.0092 O.2     
  26 C26           -3.1867    -9.2240    -0.0158 C.ar    
  27 C27           -4.1562   -10.2244    -0.0115 C.ar    
  28 C28           -3.7548   -11.5509    -0.0231 C.ar    
  29 C29           -2.3972   -11.8307    -0.0385 C.ar    
  30 C30           -1.4881   -10.7850    -0.0419 C.ar    
  31 N31           -1.8966    -9.5349    -0.0358 N.ar    
  32 C32           -0.0112   -11.0842    -0.0587 C.3     
  33 H33            3.9867    -0.7647    -0.0395 H       
  34 H34            5.5291     1.1106    -0.0417 H       
  35 H35            4.6947     3.4264    -0.0216 H       
  36 H36            2.2801     3.8668     0.0011 H       
  37 H37           -0.1830    -2.6068    -0.0101 H       
  38 H38           -1.2451    -4.7310    -0.9010 H       
  39 H39           -1.2274    -4.7406     0.8788 H       
  40 H40           -3.3355    -5.3271    -2.1328 H       
  41 H41           -4.8071    -5.7614    -1.2304 H       
  42 H42           -4.9510    -3.4461    -2.1066 H       
  43 H43           -5.4734    -2.3277     0.0439 H       
  44 H44           -6.0556    -4.0098     0.0407 H       
  45 H45           -4.9085    -3.4691     2.1715 H       
  46 H46           -2.4759    -2.9890     2.1500 H       
  47 H47           -3.3830    -1.7316     1.2757 H       
  48 H48           -4.7823    -5.7748     1.2679 H       
  49 H49           -3.2931    -5.3501     2.1454 H       
  50 H50           -3.4078    -1.7182    -1.2226 H       
  51 H51           -2.5184    -2.9660    -2.1282 H       
  52 H52           -1.7243    -7.0604    -0.0187 H       
  53 H53           -5.2057    -9.9699     0.0010 H       
  54 H54           -4.4831   -12.3483    -0.0198 H       
  55 H55           -2.0514   -12.8538    -0.0475 H       
  56 H56            0.3344   -11.1506    -1.0903 H       
  57 H57            0.5268   -10.2870     0.4542 H       
  58 H58            0.1734   -12.0315     0.4480 H       
@<TRIPOS>BOND
   1    1    2 1
   2    1    5 1
   3    2    3 2
   4    2   10 1
   5    3    4 1
   6    4    5 ar
   7    4    6 ar
   8    5    9 ar
   9    6    7 ar
  10    6   33 1
  11    7    8 ar
  12    7   34 1
  13    8    9 ar
  14    8   35 1
  15    9   36 1
  16   10   11 2
  17   10   12 am
  18   12   13 1
  19   12   37 1
  20   13   14 1
  21   13   20 1
  22   13   22 1
  23   14   15 1
  24   14   38 1
  25   14   39 1
  26   15   16 1
  27   15   21 1
  28   15   23 1
  29   16   17 1
  30   16   40 1
  31   16   41 1
  32   17   18 1
  33   17   22 1
  34   17   42 1
  35   18   19 1
  36   18   43 1
  37   18   44 1
  38   19   20 1
  39   19   21 1
  40   19   45 1
  41   20   46 1
  42   20   47 1
  43   21   48 1
  44   21   49 1
  45   22   50 1
  46   22   51 1
  47   23   24 am
  48   23   52 1
  49   24   25 2
  50   24   26 1
  51   26   27 ar
  52   26   31 ar
  53   27   28 ar
  54   27   53 1
  55   28   29 ar
  56   28   54 1
  57   29   30 ar
  58   29   55 1
  59   30   31 ar
  60   30   32 1
  61   32   56 1
  62   32   57 1
  63   32   58 1

#	End of record

