#	Name: ASD01812569
#	Creating user name:	WinNT
#	Creation time:	15. 06. 2019 19:28

#	Modifying user name:	WinNT
#	Modification time:	15. 06. 2019 19:28

#	Program:	/corina/corina34_cracker 3.40 0067  02.08.2006

@<TRIPOS>MOLECULE
ASD01812569
  60   65    0    0    0
SMALL
NO_CHARGES


@<TRIPOS>ATOM
   1 C1            -0.0178     1.4608     0.0101 C.3     
   2 N2             0.0021    -0.0041     0.0020 N.pl3   
   3 C3             0.0080    -0.7840    -1.1223 C.2     
   4 C4             0.0270    -2.0816    -0.7792 C.2     
   5 C5             0.0339    -2.1375     0.6846 C.ar    
   6 C6             0.0519    -3.1772     1.6159 C.ar    
   7 C7             0.0700    -4.6100     1.1493 C.3     
   8 C8             1.4903    -5.0297     0.8705 C.ar    
   9 C9             1.9842    -4.9457    -0.3905 C.ar    
  10 C10            3.3049    -5.3316    -0.6698 C.ar    
  11 C11            3.8530    -5.2360    -2.0364 C.2     
  12 O12            3.1236    -5.1316    -3.0043 O.2     
  13 N13            5.1999    -5.2687    -2.1704 N.am    
  14 C14            6.0416    -5.3442    -0.9758 C.3     
  15 N15            5.4279    -6.1936     0.0468 N.3     
  16 C16            4.1371    -5.8128     0.3440 C.ar    
  17 C17            3.6352    -5.9020     1.6597 C.ar    
  18 C18            4.4333    -6.3746     2.7119 C.ar    
  19 C19            3.9164    -6.4501     3.9705 C.ar    
  20 C20            2.6041    -6.0636     4.2283 C.ar    
  21 C21            1.8013    -5.5993     3.2303 C.ar    
  22 C22            2.3014    -5.5022     1.9219 C.ar    
  23 C23            5.8102    -5.2292    -3.5017 C.3     
  24 H24            6.8954    -5.2642    -3.4065 H       
  25 C25            5.3288    -6.4300    -4.3219 C.3     
  26 C26            5.9088    -6.3379    -5.7357 C.3     
  27 O27            5.5130    -5.1009    -6.3319 O.3     
  28 C28            5.9753    -3.9427    -5.6341 C.3     
  29 C29            5.3998    -3.9375    -4.2154 C.3     
  30 H30            4.3125    -3.8783    -4.2650 H       
  31 O31            5.9081    -2.8122    -3.4961 O.3     
  32 C32            0.0536    -2.8911     2.9522 C.ar    
  33 C33            0.0375    -1.5746     3.3914 C.ar    
  34 C34            0.0196    -0.5331     2.4894 C.ar    
  35 C35            0.0236    -0.8010     1.1246 C.ar    
  36 H36            1.0048     1.8381     0.0023 H       
  37 H37           -0.5450     1.8219    -0.8730 H       
  38 H38           -0.5280     1.8123     0.9069 H       
  39 H39           -0.0017    -0.4107    -2.1357 H       
  40 H40            0.0353    -2.9245    -1.4543 H       
  41 H41           -0.3525    -5.2498     1.9241 H       
  42 H42           -0.5217    -4.7031     0.2386 H       
  43 H43            1.3548    -4.5786    -1.1876 H       
  44 H44            7.0130    -5.7569    -1.2480 H       
  45 H45            6.1804    -4.3413    -0.5719 H       
  46 H46            5.4656    -7.1659    -0.2204 H       
  47 H47            5.4530    -6.6777     2.5254 H       
  48 H48            4.5329    -6.8149     4.7788 H       
  49 H49            2.2166    -6.1333     5.2340 H       
  50 H50            0.7852    -5.3032     3.4455 H       
  51 H51            5.6658    -7.3525    -3.8493 H       
  52 H52            4.2400    -6.4227    -4.3737 H       
  53 H53            6.9966    -6.3859    -5.6861 H       
  54 H54            5.5351    -7.1670    -6.3366 H       
  55 H55            7.0640    -3.9594    -5.5833 H       
  56 H56            5.6496    -3.0463    -6.1619 H       
  57 H57            5.6855    -1.9587    -3.8925 H       
  58 H58            0.0672    -3.6959     3.6723 H       
  59 H59            0.0387    -1.3645     4.4507 H       
  60 H60            0.0069     0.4880     2.8411 H       
@<TRIPOS>BOND
   1    1    2 1
   2    1   36 1
   3    1   37 1
   4    1   38 1
   5    2   35 1
   6    2    3 1
   7    3    4 2
   8    3   39 1
   9    4    5 1
  10    4   40 1
  11    5   35 ar
  12    5    6 ar
  13    6    7 1
  14    6   32 ar
  15    7    8 1
  16    7   41 1
  17    7   42 1
  18    8   22 ar
  19    8    9 ar
  20    9   10 ar
  21    9   43 1
  22   10   16 ar
  23   10   11 1
  24   11   12 2
  25   11   13 am
  26   13   14 1
  27   13   23 1
  28   14   15 1
  29   14   44 1
  30   14   45 1
  31   15   16 1
  32   15   46 1
  33   16   17 ar
  34   17   22 ar
  35   17   18 ar
  36   18   19 ar
  37   18   47 1
  38   19   20 ar
  39   19   48 1
  40   20   21 ar
  41   20   49 1
  42   21   22 ar
  43   21   50 1
  44   23   24 1
  45   23   29 1
  46   23   25 1
  47   25   26 1
  48   25   51 1
  49   25   52 1
  50   26   27 1
  51   26   53 1
  52   26   54 1
  53   27   28 1
  54   28   29 1
  55   28   55 1
  56   28   56 1
  57   29   30 1
  58   29   31 1
  59   31   57 1
  60   32   33 ar
  61   32   58 1
  62   33   34 ar
  63   33   59 1
  64   34   35 ar
  65   34   60 1

#	End of record

