#	Name: ASD01900866
#	Creating user name:	WinNT
#	Creation time:	15. 06. 2019 19:52

#	Modifying user name:	WinNT
#	Modification time:	15. 06. 2019 19:52

#	Program:	/corina/corina34_cracker 3.40 0067  02.08.2006

@<TRIPOS>MOLECULE
ASD01900866
  65   70    0    0    0
SMALL
NO_CHARGES


@<TRIPOS>ATOM
   1 C1             0.4020     0.9442     0.1802 C.ar    
   2 C2             0.5014    -0.4147     0.0941 C.ar    
   3 C3             1.7237    -1.0190    -0.2243 C.ar    
   4 C4             2.8576    -0.2347    -0.4482 C.ar    
   5 C5             2.7621     1.1396    -0.3549 C.ar    
   6 C6             1.5248     1.7399    -0.0505 C.ar    
   7 N7             3.8663     1.9633    -0.5470 N.pl3   
   8 C8             3.6574     3.3273    -1.0462 C.3     
   9 N9             2.5116     3.9432    -0.3769 N.am    
  10 C10            1.4569     3.2078     0.0258 C.2     
  11 C11            2.5113     5.3255    -0.1496 C.ar    
  12 C12            3.2525     5.8570     0.8978 C.ar    
  13 C13            3.2523     7.2190     1.1220 C.ar    
  14 C14            2.5106     8.0583     0.2997 C.ar    
  15 C15            1.7692     7.5261    -0.7480 C.ar    
  16 C16            1.7743     6.1646    -0.9752 C.ar    
  17 S17            2.5096     9.7969     0.5860 S.3     
  18 O18            0.4553     3.7536     0.4490 O.2     
  19 C19            1.8143    -2.4886    -0.3232 C.2     
  20 C20            1.5458    10.4398    -0.8099 C.3     
  21 C21            4.9143     4.1593    -0.7725 C.3     
  22 C22            3.4056     3.2813    -2.5557 C.3     
  23 C23            3.2664     4.7087    -3.0895 C.3     
  24 N24            4.4935     5.4627    -2.8028 N.3     
  25 C25            4.7294     5.5614    -1.3567 C.3     
  26 C26            4.4497     6.7944    -3.4212 C.3     
  27 C27            5.6910     7.5629    -3.0475 C.ar    
  28 C28            6.8031     7.5189    -3.8670 C.ar    
  29 C29            7.9432     8.2227    -3.5260 C.ar    
  30 C30            7.9716     8.9726    -2.3635 C.ar    
  31 C31            6.8555     9.0171    -1.5413 C.ar    
  32 C32            5.7142     8.3157    -1.8881 C.ar    
  33 F33            6.8810     9.7481    -0.4055 F       
  34 C34            0.7913    -3.3665    -0.1354 C.2     
  35 F35            9.0854     9.6602    -2.0293 F       
  36 C36            1.3235    -4.6560    -0.3264 C.2     
  37 C37            2.6311    -4.5047    -0.6183 C.2     
  38 O38            2.9226    -3.1944    -0.6207 O.3     
  39 H39           -0.5453     1.4028     0.4221 H       
  40 H40           -0.3692    -1.0282     0.2734 H       
  41 H41            3.8015    -0.6995    -0.6919 H       
  42 H42            4.7606     1.6411    -0.3536 H       
  43 H43            3.8287     5.2046     1.5371 H       
  44 H44            3.8284     7.6323     1.9367 H       
  45 H45            1.1922     8.1781    -1.3871 H       
  46 H46            1.2015     5.7513    -1.7922 H       
  47 H47            1.4072    11.5144    -0.6914 H       
  48 H48            2.0780    10.2425    -1.7404 H       
  49 H49            0.5731     9.9487    -0.8365 H       
  50 H50            5.0756     4.2316     0.3031 H       
  51 H51            5.7757     3.6813    -1.2389 H       
  52 H52            4.2431     2.7883    -3.0493 H       
  53 H53            2.4882     2.7274    -2.7547 H       
  54 H54            3.1018     4.6791    -4.1666 H       
  55 H55            2.4196     5.1961    -2.6063 H       
  56 H56            3.8751     6.0433    -0.8814 H       
  57 H57            5.6273     6.1520    -1.1746 H       
  58 H58            4.3994     6.6903    -4.5051 H       
  59 H59            3.5697     7.3309    -3.0665 H       
  60 H60            6.7815     6.9339    -4.7745 H       
  61 H61            8.8118     8.1870    -4.1669 H       
  62 H62            4.8429     8.3531    -1.2510 H       
  63 H63           -0.2309    -3.1214     0.1122 H       
  64 H64            0.7860    -5.5898    -0.2527 H       
  65 H65            3.3277    -5.3049    -0.8206 H       
@<TRIPOS>BOND
   1    1    2 ar
   2    1    6 ar
   3    1   39 1
   4    2    3 ar
   5    2   40 1
   6    3    4 ar
   7    3   19 1
   8    4    5 ar
   9    4   41 1
  10    5    7 1
  11    5    6 ar
  12    6   10 1
  13    7    8 1
  14    7   42 1
  15    8    9 1
  16    8   22 1
  17    8   21 1
  18    9   10 am
  19    9   11 1
  20   10   18 2
  21   11   12 ar
  22   11   16 ar
  23   12   13 ar
  24   12   43 1
  25   13   14 ar
  26   13   44 1
  27   14   15 ar
  28   14   17 1
  29   15   16 ar
  30   15   45 1
  31   16   46 1
  32   17   20 1
  33   19   38 1
  34   19   34 2
  35   20   47 1
  36   20   48 1
  37   20   49 1
  38   21   25 1
  39   21   50 1
  40   21   51 1
  41   22   23 1
  42   22   52 1
  43   22   53 1
  44   23   24 1
  45   23   54 1
  46   23   55 1
  47   24   25 1
  48   24   26 1
  49   25   56 1
  50   25   57 1
  51   26   27 1
  52   26   58 1
  53   26   59 1
  54   27   28 ar
  55   27   32 ar
  56   28   29 ar
  57   28   60 1
  58   29   30 ar
  59   29   61 1
  60   30   31 ar
  61   30   35 1
  62   31   32 ar
  63   31   33 1
  64   32   62 1
  65   34   36 1
  66   34   63 1
  67   36   37 2
  68   36   64 1
  69   37   38 1
  70   37   65 1

#	End of record

