#	Name: ASD01810905
#	Creating user name:	WinNT
#	Creation time:	15. 06. 2019 19:25

#	Modifying user name:	WinNT
#	Modification time:	15. 06. 2019 19:25

#	Program:	/corina/corina34_cracker 3.40 0067  02.08.2006

@<TRIPOS>MOLECULE
ASD01810905
  46   47    0    0    0
SMALL
NO_CHARGES


@<TRIPOS>ATOM
   1 N1             0.3402     1.4149    -0.1739 N.am    
   2 C2             0.0021    -0.0041     0.0020 C.3     
   3 C3             0.5803    -0.7982    -1.1735 C.3     
   4 C4             2.0809    -0.5186    -1.2838 C.3     
   5 C5             2.3057     0.9715    -1.5504 C.3     
   6 C6             1.7470     1.7857    -0.3791 C.3     
   7 C7            -0.6224     2.3579    -0.1531 C.2     
   8 O8            -1.7829     2.0379     0.0124 O.2     
   9 O9            -0.2983     3.6545    -0.3156 O.3     
  10 C10            0.6037    -0.5161     1.3123 C.3     
  11 O11            2.7247    -0.8861    -0.0621 O.3     
  12 C12            2.6597    -1.3245    -2.4181 C.ar    
  13 C13            3.9745    -1.7483    -2.3642 C.ar    
  14 C14            4.5056    -2.4878    -3.4041 C.ar    
  15 C15            3.7214    -2.8039    -4.4988 C.ar    
  16 C16            2.4059    -2.3797    -4.5523 C.ar    
  17 C17            1.8741    -1.6447    -3.5095 C.ar    
  18 Br18           4.4477    -3.8151    -5.9221 Br      
  19 C19           -1.3864     4.6153    -0.2819 C.3     
  20 C20           -2.0956     4.5353     1.0715 C.3     
  21 C21           -0.8280     6.0255    -0.4825 C.3     
  22 C22           -2.3823     4.2973    -1.3991 C.3     
  23 H23           -1.0814    -0.1214     0.0246 H       
  24 H24            0.4200    -1.8634    -1.0069 H       
  25 H25            0.0850    -0.4951    -2.0960 H       
  26 H26            3.3734     1.1659    -1.6520 H       
  27 H27            1.7942     1.2579    -2.4693 H       
  28 H28            1.8150     2.8492    -0.6081 H       
  29 H29            2.3180     1.5669     0.5232 H       
  30 H30            0.0538    -0.0946     2.1537 H       
  31 H31            0.5365    -1.6036     1.3424 H       
  32 H32            1.6494    -0.2148     1.3741 H       
  33 H33            3.6799    -0.7358    -0.0602 H       
  34 H34            4.5868    -1.5011    -1.5096 H       
  35 H35            5.5329    -2.8185    -3.3621 H       
  36 H36            1.7933    -2.6259    -5.4070 H       
  37 H37            0.8458    -1.3169    -3.5493 H       
  38 H38           -1.3861     4.7619     1.8674 H       
  39 H39           -2.9125     5.2566     1.0968 H       
  40 H40           -2.4934     3.5307     1.2144 H       
  41 H41           -0.3228     6.0825    -1.4467 H       
  42 H42           -1.6449     6.7468    -0.4572 H       
  43 H43           -0.1186     6.2520     0.3134 H       
  44 H44           -2.7801     3.2926    -1.2561 H       
  45 H45           -3.1992     5.0186    -1.3737 H       
  46 H46           -1.8771     4.3543    -2.3632 H       
@<TRIPOS>BOND
   1    1    2 1
   2    1    6 1
   3    1    7 am
   4    2    3 1
   5    2   10 1
   6    2   23 1
   7    3    4 1
   8    3   24 1
   9    3   25 1
  10    4    5 1
  11    4   11 1
  12    4   12 1
  13    5    6 1
  14    5   26 1
  15    5   27 1
  16    6   28 1
  17    6   29 1
  18    7    8 2
  19    7    9 1
  20    9   19 1
  21   10   30 1
  22   10   31 1
  23   10   32 1
  24   11   33 1
  25   12   13 ar
  26   12   17 ar
  27   13   14 ar
  28   13   34 1
  29   14   15 ar
  30   14   35 1
  31   15   16 ar
  32   15   18 1
  33   16   17 ar
  34   16   36 1
  35   17   37 1
  36   19   20 1
  37   19   22 1
  38   19   21 1
  39   20   38 1
  40   20   39 1
  41   20   40 1
  42   21   41 1
  43   21   42 1
  44   21   43 1
  45   22   44 1
  46   22   45 1
  47   22   46 1

#	End of record

