#	Name: ASD01884197
#	Creating user name:	WinNT
#	Creation time:	15. 06. 2019 19:47

#	Modifying user name:	WinNT
#	Modification time:	15. 06. 2019 19:47

#	Program:	/corina/corina34_cracker 3.40 0067  02.08.2006

@<TRIPOS>MOLECULE
ASD01884197
  36   39    0    0    0
SMALL
NO_CHARGES


@<TRIPOS>ATOM
   1 S1            -0.0219     1.7672     0.0118 S.3     
   2 C2             0.0021    -0.0041     0.0020 C.2     
   3 N3             1.2906    -0.3577    -0.0122 N.am    
   4 C4             2.2518     0.6359    -0.0160 C.ar    
   5 C5             1.7392     1.9355    -0.0042 C.ar    
   6 C6             2.5663     3.0408    -0.0068 C.ar    
   7 C7             3.9501     2.8709    -0.0216 C.ar    
   8 C8             4.4768     1.5779    -0.0336 C.ar    
   9 C9             3.6482     0.4840    -0.0306 C.ar    
  10 O10           -0.9607    -0.7487     0.0076 O.2     
  11 C11            4.8500     4.0473    -0.0251 C.ar    
  12 C12            4.8831     4.9090     1.0709 C.ar    
  13 C13            5.7249     6.0054     1.0621 C.ar    
  14 C14            6.5384     6.2563    -0.0304 C.ar    
  15 C15            6.5196     5.4156    -1.1234 C.ar    
  16 C16            5.6812     4.2996    -1.1316 C.ar    
  17 C17            1.6772    -1.7708    -0.0230 C.3     
  18 C18            1.7984    -2.2553    -1.4692 C.3     
  19 C19            2.3090    -3.6796    -1.6966 C.3     
  20 C20            0.8336    -3.3492    -1.9309 C.3     
  21 F21            3.1067    -3.9077    -2.8230 F       
  22 F22            2.6293    -4.4391    -0.5662 F       
  23 C23            5.6631     3.4203    -2.2617 C.1     
  24 F24            4.0924     4.6725     2.1405 F       
  25 N25            5.6487     2.7228    -3.1582 N.1     
  26 H26            2.1428     4.0342     0.0022 H       
  27 H27            5.5476     1.4372    -0.0455 H       
  28 H28            4.0757    -0.5077    -0.0400 H       
  29 H29            5.7481     6.6708     1.9125 H       
  30 H30            7.1916     7.1164    -0.0264 H       
  31 H31            7.1571     5.6183    -1.9714 H       
  32 H32            2.6362    -1.8890     0.4814 H       
  33 H33            0.9194    -2.3587     0.4949 H       
  34 H34            2.0844    -1.4959    -2.1970 H       
  35 H35            0.1124    -3.7238    -1.2044 H       
  36 H36            0.4845    -3.3097    -2.9627 H       
@<TRIPOS>BOND
   1    1    2 1
   2    1    5 1
   3    2    3 am
   4    2   10 2
   5    3    4 1
   6    3   17 1
   7    4    5 ar
   8    4    9 ar
   9    5    6 ar
  10    6    7 ar
  11    6   26 1
  12    7    8 ar
  13    7   11 1
  14    8    9 ar
  15    8   27 1
  16    9   28 1
  17   11   12 ar
  18   11   16 ar
  19   12   13 ar
  20   12   24 1
  21   13   14 ar
  22   13   29 1
  23   14   15 ar
  24   14   30 1
  25   15   16 ar
  26   15   31 1
  27   16   23 1
  28   17   18 1
  29   17   32 1
  30   17   33 1
  31   18   19 1
  32   18   20 1
  33   18   34 1
  34   19   20 1
  35   19   21 1
  36   19   22 1
  37   20   35 1
  38   20   36 1
  39   23   25 3

#	End of record

