#	Name: ASD04800002
#	Creating user name:	WinNT
#	Creation time:	15. 06. 2019 20:52

#	Modifying user name:	WinNT
#	Modification time:	15. 06. 2019 20:52

#	Program:	/corina/corina34_cracker 3.40 0067  02.08.2006

@<TRIPOS>MOLECULE
ASD04800002
  33   34    0    0    0
SMALL
NO_CHARGES


@<TRIPOS>ATOM
   1 C1            -0.0169     1.3945     0.0097 C.ar    
   2 C2             0.0021    -0.0041     0.0020 C.ar    
   3 C3             1.2234    -0.6843    -0.0133 C.ar    
   4 C4             2.4059     0.0218    -0.0203 C.ar    
   5 C5             2.3894     1.4116    -0.0123 C.ar    
   6 C6             1.1720     2.0983     0.0021 C.ar    
   7 N7             1.1575     3.4986     0.0098 N.pl3   
   8 N8             3.5881     2.1213    -0.0185 N.pl3   
   9 C9             4.8647     1.4028    -0.0336 C.3     
  10 C10            6.0167     2.4098    -0.0377 C.3     
  11 O11            6.0389     3.1278     1.2015 O.3     
  12 C12            7.2716     2.8734     1.8938 C.3     
  13 C13            8.2807     2.4715     0.7889 C.3     
  14 C14            7.3626     1.6652    -0.1697 C.3     
  15 C15           -1.2635    -0.7595     0.0105 C.2     
  16 O16           -2.3245    -0.1673     0.0242 O.2     
  17 O17           -1.2439    -2.1069     0.0031 O.3     
  18 H18           -0.9587     1.9230     0.0170 H       
  19 H19            1.2396    -1.7641    -0.0193 H       
  20 H20            3.3482    -0.5058    -0.0318 H       
  21 H21            1.9924     3.9924     0.0051 H       
  22 H22            0.3124     3.9748     0.0198 H       
  23 H23            3.5775     3.0913    -0.0129 H       
  24 H24            4.9370     0.7718     0.8522 H       
  25 H25            4.9217     0.7819    -0.9276 H       
  26 H26            5.8953     3.1068    -0.8668 H       
  27 H27            7.6104     3.7738     2.4063 H       
  28 H28            7.1445     2.0574     2.6052 H       
  29 H29            8.6909     3.3511     0.2927 H       
  30 H30            9.0754     1.8439     1.1922 H       
  31 H31            7.2681     0.6312     0.1620 H       
  32 H32            7.7336     1.7129    -1.1935 H       
  33 H33           -2.0991    -2.5584     0.0092 H       
@<TRIPOS>BOND
   1    1    2 ar
   2    1    6 ar
   3    1   18 1
   4    2    3 ar
   5    2   15 1
   6    3    4 ar
   7    3   19 1
   8    4    5 ar
   9    4   20 1
  10    5    6 ar
  11    5    8 1
  12    6    7 1
  13    7   21 1
  14    7   22 1
  15    8    9 1
  16    8   23 1
  17    9   10 1
  18    9   24 1
  19    9   25 1
  20   10   11 1
  21   10   14 1
  22   10   26 1
  23   11   12 1
  24   12   13 1
  25   12   27 1
  26   12   28 1
  27   13   14 1
  28   13   29 1
  29   13   30 1
  30   14   31 1
  31   14   32 1
  32   15   16 2
  33   15   17 1
  34   17   33 1

#	End of record

