#	Name: ASD07730012
#	Creating user name:	WinNT
#	Creation time:	15. 06. 2019 21:11

#	Modifying user name:	WinNT
#	Modification time:	15. 06. 2019 21:11

#	Program:	/corina/corina34_cracker 3.40 0067  02.08.2006

@<TRIPOS>MOLECULE
ASD07730012
  42   44    0    0    0
SMALL
NO_CHARGES


@<TRIPOS>ATOM
   1 C1             0.1650     1.3693     0.6734 C.ar    
   2 C2             0.1819    -0.0124     0.6472 C.ar    
   3 C3             1.2148    -0.6811     0.0070 C.ar    
   4 C4             2.2329     0.0436    -0.6082 C.ar    
   5 C5             2.2087     1.4285    -0.5776 C.ar    
   6 C6             1.1759     2.0881     0.0624 C.ar    
   7 O7             3.2483    -0.6066    -1.2370 O.3     
   8 C8             4.2575     0.2014    -1.8458 C.3     
   9 N9             1.2343    -2.0822    -0.0204 N.am    
  10 C10            0.0831    -2.7745     0.0890 C.2     
  11 N11            0.0917    -4.1179    -0.0190 N.am    
  12 O12           -0.9633    -2.1870     0.2852 O.2     
  13 C13           -1.0981    -4.8333     0.0941 C.2     
  14 C14           -2.3154    -4.2882     0.3108 C.2     
  15 C15           -3.2754    -5.3923     0.3605 C.ar    
  16 C16           -2.5296    -6.5688     0.1610 C.ar    
  17 N17           -1.2112    -6.1954    -0.0035 N.pl3   
  18 C18           -4.6570    -5.4671     0.5516 C.ar    
  19 C19           -5.2780    -6.6845     0.5439 C.ar    
  20 C20           -4.5464    -7.8475     0.3475 C.ar    
  21 C21           -3.1821    -7.7961     0.1566 C.ar    
  22 C22           -0.0977    -7.1182    -0.2374 C.3     
  23 C23            0.0815    -7.3304    -1.7420 C.3     
  24 H24           -0.6421     1.8889     1.1683 H       
  25 H25           -0.6088    -0.5713     1.1255 H       
  26 H26            2.9968     1.9929    -1.0538 H       
  27 H27            1.1587     3.1677     0.0853 H       
  28 H28            4.7330     0.8222    -1.0865 H       
  29 H29            5.0055    -0.4407    -2.3109 H       
  30 H30            3.8037     0.8390    -2.6046 H       
  31 H31            2.0764    -2.5537    -0.1182 H       
  32 H32            0.9265    -4.5865    -0.1755 H       
  33 H33           -2.5377    -3.2376     0.4260 H       
  34 H34           -5.2324    -4.5662     0.7053 H       
  35 H35           -6.3462    -6.7421     0.6920 H       
  36 H36           -5.0511    -8.8023     0.3443 H       
  37 H37           -2.6218    -8.7068     0.0047 H       
  38 H38            0.8166    -6.6980     0.1817 H       
  39 H39           -0.3110    -8.0739     0.2414 H       
  40 H40            0.2949    -6.3747    -2.2208 H       
  41 H41            0.9100    -8.0169    -1.9160 H       
  42 H42           -0.8328    -7.7506    -2.1611 H       
@<TRIPOS>BOND
   1    1    2 ar
   2    1    6 ar
   3    1   24 1
   4    2    3 ar
   5    2   25 1
   6    3    4 ar
   7    3    9 1
   8    4    5 ar
   9    4    7 1
  10    5    6 ar
  11    5   26 1
  12    6   27 1
  13    7    8 1
  14    8   28 1
  15    8   29 1
  16    8   30 1
  17    9   10 am
  18    9   31 1
  19   10   11 am
  20   10   12 2
  21   11   13 1
  22   11   32 1
  23   13   14 2
  24   13   17 1
  25   14   15 1
  26   14   33 1
  27   15   16 ar
  28   15   18 ar
  29   16   17 1
  30   16   21 ar
  31   17   22 1
  32   18   19 ar
  33   18   34 1
  34   19   20 ar
  35   19   35 1
  36   20   21 ar
  37   20   36 1
  38   21   37 1
  39   22   23 1
  40   22   38 1
  41   22   39 1
  42   23   40 1
  43   23   41 1
  44   23   42 1

#	End of record

