#	Name: ASD01911466
#	Creating user name:	WinNT
#	Creation time:	15. 06. 2019 19:57

#	Modifying user name:	WinNT
#	Modification time:	15. 06. 2019 19:57

#	Program:	/corina/corina34_cracker 3.40 0067  02.08.2006

@<TRIPOS>MOLECULE
ASD01911466
  27   29    0    0    0
SMALL
NO_CHARGES


@<TRIPOS>ATOM
   1 C1            -0.0167     1.3770     0.0096 C.ar    
   2 C2             0.0021    -0.0041     0.0020 C.ar    
   3 C3             1.2224    -0.6672    -0.0132 C.ar    
   4 C4             2.3828     0.0861    -0.0203 C.ar    
   5 C5             2.2887     1.4733    -0.0120 C.ar    
   6 N6             1.1069     2.0687     0.0026 N.ar    
   7 N7             3.4504     2.2443    -0.0190 N.am    
   8 C8             4.8200     1.7235    -0.1392 C.3     
   9 C9             3.4984     3.5796     0.0770 C.2     
  10 O10            4.7379     4.0805     0.0457 O.3     
  11 C11            5.7000     2.9956    -0.0899 C.3     
  12 C12            6.5397     2.8958     1.1993 C.3     
  13 C13            5.7200     1.9566     2.1180 C.3     
  14 C14            5.1654     0.9053     1.1210 C.3     
  15 O15            2.5059     4.2726     0.1824 O.2     
  16 I16           -1.7912    -1.0871     0.0141 I       
  17 H17           -0.9630     1.8973     0.0169 H       
  18 H18            1.2644    -1.7464    -0.0191 H       
  19 H19            3.3487    -0.3969    -0.0318 H       
  20 H20            4.9589     1.1447    -1.0524 H       
  21 H21            6.3134     3.1035    -0.9845 H       
  22 H22            7.5166     2.4622     0.9852 H       
  23 H23            6.6501     3.8778     1.6592 H       
  24 H24            6.3637     1.4830     2.8592 H       
  25 H25            4.9082     2.5006     2.6008 H       
  26 H26            4.2702     0.4339     1.5266 H       
  27 H27            5.9222     0.1548     0.8925 H       
@<TRIPOS>BOND
   1    1    2 ar
   2    1    6 ar
   3    1   17 1
   4    2    3 ar
   5    2   16 1
   6    3    4 ar
   7    3   18 1
   8    4    5 ar
   9    4   19 1
  10    5    6 ar
  11    5    7 1
  12    7    8 1
  13    7    9 am
  14    8   14 1
  15    8   11 1
  16    8   20 1
  17    9   10 1
  18    9   15 2
  19   10   11 1
  20   11   12 1
  21   11   21 1
  22   12   13 1
  23   12   22 1
  24   12   23 1
  25   13   14 1
  26   13   24 1
  27   13   25 1
  28   14   26 1
  29   14   27 1

#	End of record

