#	Name: ASD05790041
#	Creating user name:	WinNT
#	Creation time:	15. 06. 2019 21:03

#	Modifying user name:	WinNT
#	Modification time:	15. 06. 2019 21:03

#	Program:	/corina/corina34_cracker 3.40 0067  02.08.2006

@<TRIPOS>MOLECULE
ASD05790041
  49   52    0    0    0
SMALL
NO_CHARGES


@<TRIPOS>ATOM
   1 C1            -0.2825     1.8838    -0.7943 C.2     
   2 C2            -0.1781     0.4118    -0.8017 C.ar    
   3 C3             0.7087    -0.2234    -1.6756 C.ar    
   4 C4             0.8031    -1.5969    -1.6794 C.ar    
   5 C5             0.0179    -2.3519    -0.8158 C.ar    
   6 C6            -0.8655    -1.7242     0.0544 C.ar    
   7 C7            -0.9614    -0.3505     0.0688 C.ar    
   8 O8             0.4768     2.5505    -1.4706 O.2     
   9 N9            -1.2231     2.4888    -0.0422 N.am    
  10 C10            1.5601     0.5941    -2.6126 C.3     
  11 O11            0.1138    -3.7056    -0.8226 O.3     
  12 C12           -0.7218    -4.4199     0.0904 C.3     
  13 C13           -1.2539     3.8818     0.0497 C.ar    
  14 C14           -2.4711     4.5418     0.1786 C.ar    
  15 C15           -2.5050     5.9160     0.2700 C.ar    
  16 C16           -1.3151     6.6463     0.2331 C.ar    
  17 C17           -0.0943     5.9803     0.1036 C.ar    
  18 C18           -0.0670     4.6056     0.0180 C.ar    
  19 O19           -2.4553     8.8712     0.4574 O.3     
  20 C20           -1.3477     8.1200     0.3304 C.2     
  21 N21           -0.3008     8.9095     0.3077 N.2     
  22 C22           -0.7226    10.1863     0.4204 C.2     
  23 C23           -2.0760    10.1627     0.5145 C.2     
  24 C24            0.1370    11.3958     0.4382 C.ar    
  25 C25            1.5221    11.2718     0.3318 C.ar    
  26 C26            2.3168    12.4013     0.3490 C.ar    
  27 C27            1.7410    13.6530     0.4720 C.ar    
  28 C28            0.3680    13.7811     0.5783 C.ar    
  29 C29           -0.4367    12.6597     0.5556 C.ar    
  30 Cl30           2.2457     9.7013     0.1785 Cl      
  31 H31            1.4879    -2.0885    -2.3546 H       
  32 H32           -1.4741    -2.3144     0.7235 H       
  33 H33           -1.6447     0.1368     0.7487 H       
  34 H34           -1.8787     1.9566     0.4352 H       
  35 H35            2.4481     0.9430    -2.0857 H       
  36 H36            1.8594    -0.0208    -3.4614 H       
  37 H37            0.9885     1.4512    -2.9685 H       
  38 H38           -0.4890    -4.1150     1.1106 H       
  39 H39           -1.7672    -4.1993    -0.1252 H       
  40 H40           -0.5465    -5.4903    -0.0179 H       
  41 H41           -3.3910     3.9765     0.2068 H       
  42 H42           -3.4506     6.4280     0.3698 H       
  43 H43            0.8276     6.5422     0.0747 H       
  44 H44            0.8770     4.0898    -0.0781 H       
  45 H45           -2.7268    11.0185     0.6164 H       
  46 H46            3.3895    12.3070     0.2667 H       
  47 H47            2.3661    14.5336     0.4855 H       
  48 H48           -0.0758    14.7610     0.6749 H       
  49 H49           -1.5091    12.7618     0.6335 H       
@<TRIPOS>BOND
   1    1    2 1
   2    1    8 2
   3    1    9 am
   4    2    3 ar
   5    2    7 ar
   6    3    4 ar
   7    3   10 1
   8    4    5 ar
   9    4   31 1
  10    5    6 ar
  11    5   11 1
  12    6    7 ar
  13    6   32 1
  14    7   33 1
  15    9   13 1
  16    9   34 1
  17   10   35 1
  18   10   36 1
  19   10   37 1
  20   11   12 1
  21   12   38 1
  22   12   39 1
  23   12   40 1
  24   13   14 ar
  25   13   18 ar
  26   14   15 ar
  27   14   41 1
  28   15   16 ar
  29   15   42 1
  30   16   17 ar
  31   16   20 1
  32   17   18 ar
  33   17   43 1
  34   18   44 1
  35   19   20 1
  36   19   23 1
  37   20   21 2
  38   21   22 1
  39   22   23 2
  40   22   24 1
  41   23   45 1
  42   24   25 ar
  43   24   29 ar
  44   25   26 ar
  45   25   30 1
  46   26   27 ar
  47   26   46 1
  48   27   28 ar
  49   27   47 1
  50   28   29 ar
  51   28   48 1
  52   29   49 1

#	End of record

