#	Name: ASD01915268
#	Creating user name:	WinNT
#	Creation time:	15. 06. 2019 20:05

#	Modifying user name:	WinNT
#	Modification time:	15. 06. 2019 20:05

#	Program:	/corina/corina34_cracker 3.40 0067  02.08.2006

@<TRIPOS>MOLECULE
ASD01915268
  46   48    0    0    0
SMALL
NO_CHARGES


@<TRIPOS>ATOM
   1 C1            -0.0144     0.7262    -0.4966 C.ar    
   2 C2             0.1708    -0.6360    -0.6414 C.ar    
   3 C3            -0.9195    -1.4664    -0.8215 C.ar    
   4 C4            -2.1950    -0.9347    -0.8565 C.ar    
   5 C5            -2.3803     0.4274    -0.7108 C.ar    
   6 C6            -1.2903     1.2573    -0.5263 C.ar    
   7 C7             1.1743     1.6316    -0.3003 C.3     
   8 O8             1.6519     2.0734    -1.5726 O.3     
   9 C9             2.7840     2.9422    -1.4987 C.3     
  10 C10            3.2069     3.3500    -2.9114 C.3     
  11 N11            2.1206     4.1062    -3.5487 N.3     
  12 C12            2.5252     4.5927    -4.8751 C.3     
  13 C13            1.3430     5.3047    -5.5368 C.3     
  14 N14            0.9039     6.4169    -4.6825 N.3     
  15 C15            0.4993     5.9304    -3.3561 C.3     
  16 C16            1.6815     5.2183    -2.6944 C.3     
  17 C17           -0.1301     7.1366    -5.2890 C.ar    
  18 C18           -1.4048     7.1195    -4.7396 C.ar    
  19 C19           -2.4248     7.8315    -5.3409 C.ar    
  20 C20           -2.1773     8.5610    -6.4901 C.ar    
  21 C21           -0.9077     8.5801    -7.0410 C.ar    
  22 C22            0.1178     7.8753    -6.4403 C.ar    
  23 Cl23          -3.4618     9.4539    -7.2428 Cl      
  24 Cl24           1.7101     7.8994    -7.1315 Cl      
  25 H25            1.1673    -1.0514    -0.6141 H       
  26 H26           -0.7748    -2.5306    -0.9353 H       
  27 H27           -3.0468    -1.5834    -0.9979 H       
  28 H28           -3.3768     0.8429    -0.7384 H       
  29 H29           -1.4350     2.3215    -0.4125 H       
  30 H30            0.8791     2.4945     0.2966 H       
  31 H31            1.9649     1.0865     0.2153 H       
  32 H32            2.5222     3.8323    -0.9267 H       
  33 H33            3.6080     2.4243    -1.0080 H       
  34 H34            4.1001     3.9724    -2.8579 H       
  35 H35            3.4211     2.4570    -3.4986 H       
  36 H36            3.3564     5.2898    -4.7688 H       
  37 H37            2.8341     3.7496    -5.4930 H       
  38 H38            1.6493     5.6917    -6.5087 H       
  39 H39            0.5214     4.6005    -5.6679 H       
  40 H40            0.1904     6.7735    -2.7382 H       
  41 H41           -0.3319     5.2333    -3.4624 H       
  42 H42            1.3752     4.8314    -1.7225 H       
  43 H43            2.5030     5.9226    -2.5633 H       
  44 H44           -1.5992     6.5497    -3.8429 H       
  45 H45           -3.4166     7.8183    -4.9136 H       
  46 H46           -0.7175     9.1499    -7.9385 H       
@<TRIPOS>BOND
   1    1    2 ar
   2    1    7 1
   3    1    6 ar
   4    2    3 ar
   5    2   25 1
   6    3    4 ar
   7    3   26 1
   8    4    5 ar
   9    4   27 1
  10    5    6 ar
  11    5   28 1
  12    6   29 1
  13    7    8 1
  14    7   30 1
  15    7   31 1
  16    8    9 1
  17    9   10 1
  18    9   32 1
  19    9   33 1
  20   10   11 1
  21   10   34 1
  22   10   35 1
  23   11   12 1
  24   11   16 1
  25   12   13 1
  26   12   36 1
  27   12   37 1
  28   13   14 1
  29   13   38 1
  30   13   39 1
  31   14   15 1
  32   14   17 1
  33   15   16 1
  34   15   40 1
  35   15   41 1
  36   16   42 1
  37   16   43 1
  38   17   18 ar
  39   17   22 ar
  40   18   19 ar
  41   18   44 1
  42   19   20 ar
  43   19   45 1
  44   20   21 ar
  45   20   23 1
  46   21   22 ar
  47   21   46 1
  48   22   24 1

#	End of record

