#	Name: ASD01814670
#	Creating user name:	WinNT
#	Creation time:	15. 06. 2019 19:32

#	Modifying user name:	WinNT
#	Modification time:	15. 06. 2019 19:32

#	Program:	/corina/corina34_cracker 3.40 0067  02.08.2006

@<TRIPOS>MOLECULE
ASD01814670
  47   50    0    0    0
SMALL
NO_CHARGES


@<TRIPOS>ATOM
   1 C1             0.1351     1.2932    -0.7648 C.2     
   2 N2            -1.1675     1.6774    -0.9547 N.pl3   
   3 N3            -1.9615     0.5275    -0.8941 N.2     
   4 C4            -1.1859    -0.5154    -0.6773 C.2     
   5 C5             0.1276    -0.0852    -0.5900 C.2     
   6 C6            -1.2181    -2.0123    -0.4896 C.3     
   7 N7             0.1605    -2.4661    -0.2823 N.am    
   8 C8             1.0169    -1.2775    -0.3468 C.3     
   9 C9            -1.4638     2.9952    -1.1547 C.2     
  10 C10           -0.4579     3.9034    -1.1616 C.2     
  11 C11            0.8619     3.4724    -0.9639 C.2     
  12 N12            1.1216     2.1995    -0.7785 N.2     
  13 C13            0.5646    -3.7353    -0.0765 C.2     
  14 C14           -0.4331    -4.8140     0.0625 C.ar    
  15 O15            1.7510    -3.9916    -0.0053 O.2     
  16 C16           -0.3194    -5.7496     1.0997 C.ar    
  17 C17           -1.2623    -6.7585     1.2213 C.ar    
  18 C18           -2.3089    -6.8400     0.3234 C.ar    
  19 C19           -2.4245    -5.9177    -0.7031 C.ar    
  20 C20           -1.4988    -4.9046    -0.8352 C.ar    
  21 O21            0.7096    -5.6687     1.9810 O.3     
  22 C22           -0.7552     5.3645    -1.3805 C.3     
  23 C23            1.9874     4.4746    -0.9699 C.3     
  24 C24           -2.8901     3.4337    -1.3654 C.3     
  25 C25            0.5732    -4.8044     2.9999 C.2     
  26 C26            1.7178    -4.5769     3.9534 C.3     
  27 O27           -0.4673    -4.2093     3.1521 O.2     
  28 H28           -1.8241    -2.2624     0.3812 H       
  29 H29           -1.6336    -2.4872    -1.3784 H       
  30 H30            1.7306    -1.3790    -1.1643 H       
  31 H31            1.5491    -1.1551     0.5965 H       
  32 H32           -1.1784    -7.4819     2.0188 H       
  33 H33           -3.0410    -7.6278     0.4223 H       
  34 H34           -3.2459    -5.9897    -1.4005 H       
  35 H35           -1.5954    -4.1846    -1.6343 H       
  36 H36           -0.9368     5.8462    -0.4197 H       
  37 H37            0.0953     5.8390    -1.8698 H       
  38 H38           -1.6392     5.4650    -2.0102 H       
  39 H39            2.1490     4.8454     0.0423 H       
  40 H40            2.8977     3.9965    -1.3314 H       
  41 H41            1.7293     5.3069    -1.6248 H       
  42 H42           -3.3440     3.6685    -0.4026 H       
  43 H43           -2.9079     4.3190    -2.0010 H       
  44 H44           -3.4500     2.6308    -1.8449 H       
  45 H45            2.3410    -3.7620     3.5851 H       
  46 H46            1.3254    -4.3183     4.9369 H       
  47 H47            2.3148    -5.4858     4.0279 H       
@<TRIPOS>BOND
   1    1    5 2
   2    1   12 1
   3    1    2 1
   4    2    3 1
   5    2    9 1
   6    3    4 2
   7    4    6 1
   8    4    5 1
   9    5    8 1
  10    6    7 1
  11    6   28 1
  12    6   29 1
  13    7    8 1
  14    7   13 am
  15    8   30 1
  16    8   31 1
  17    9   10 2
  18    9   24 1
  19   10   11 1
  20   10   22 1
  21   11   12 2
  22   11   23 1
  23   13   14 1
  24   13   15 2
  25   14   16 ar
  26   14   20 ar
  27   16   17 ar
  28   16   21 1
  29   17   18 ar
  30   17   32 1
  31   18   19 ar
  32   18   33 1
  33   19   20 ar
  34   19   34 1
  35   20   35 1
  36   21   25 1
  37   22   36 1
  38   22   37 1
  39   22   38 1
  40   23   39 1
  41   23   40 1
  42   23   41 1
  43   24   42 1
  44   24   43 1
  45   24   44 1
  46   25   26 1
  47   25   27 2
  48   26   45 1
  49   26   46 1
  50   26   47 1

#	End of record

