#	Name: ASD01208609
#	Creating user name:	WinNT
#	Creation time:	15. 06. 2019 19:10

#	Modifying user name:	WinNT
#	Modification time:	15. 06. 2019 19:10

#	Program:	/corina/corina34_cracker 3.40 0067  02.08.2006

@<TRIPOS>MOLECULE
ASD01208609
 113  114    0    0    0
SMALL
NO_CHARGES


@<TRIPOS>ATOM
   1 N1            -2.8879     5.7802    -0.9105 N.pl3   
   2 C2            -2.5749     4.7488    -0.0538 C.2     
   3 C3            -1.2476     4.8789     0.3030 C.2     
   4 C4            -0.7488     6.0061    -0.3473 C.2     
   5 C5            -1.7750     6.5482    -1.0905 C.2     
   6 C6            -3.4901     3.6974     0.3997 C.2     
   7 O7            -3.0955     2.8342     1.1617 O.2     
   8 N8            -4.7684     3.6865    -0.0271 N.am    
   9 C9            -1.6850     7.7558    -1.9383 C.ar    
  10 C10           -2.8042     8.2011    -2.6429 C.ar    
  11 C11           -2.7156     9.3328    -3.4360 C.ar    
  12 C12           -1.5158    10.0236    -3.5310 C.ar    
  13 C13           -0.4007     9.5844    -2.8323 C.ar    
  14 C14           -0.4824     8.4568    -2.0318 C.ar    
  15 O15            0.7719    10.2645    -2.9289 O.3     
  16 Si16           1.0488    11.2885    -1.6899 Si      
  17 C17           -0.2391    13.2334    -3.1967 C.3     
  18 C18           -0.1673    12.6978    -1.7653 C.3     
  19 C19           -1.5498    12.2020    -1.3364 C.3     
  20 C20            2.0020     9.3921     0.1009 C.3     
  21 C21            0.8469    10.3797    -0.0762 C.3     
  22 C22            0.8525    11.3835     1.0785 C.3     
  23 C23            3.0908    12.8074    -0.5785 C.3     
  24 C24            2.7831    11.9576    -1.8131 C.3     
  25 C25            3.7741    10.7946    -1.8914 C.3     
  26 O26           -3.8050     9.7673    -4.1226 O.3     
  27 C27           -5.8289     9.2043    -5.3172 C.3     
  28 C28           -4.9716     8.9433    -4.0771 C.3     
  29 C29           -5.7796     9.2722    -2.8201 C.3     
  30 O30           -6.3138    10.5481    -5.2869 O.3     
  31 C31           -7.1303    10.8968    -6.4066 C.3     
  32 C32           -6.8004     2.4533    -0.6031 C.3     
  33 C33           -5.6831     2.6357     0.4261 C.3     
  34 C34           -6.2902     3.0340     1.7728 C.3     
  35 C35           -7.2455     1.9366     2.2461 C.3     
  36 O36           -7.5908     3.6423    -0.6638 O.3     
  37 Si37          -8.8512     3.5491    -1.6948 Si      
  38 C38           -6.9432     3.7062    -3.7064 C.3     
  39 C39           -8.2475     2.9834    -3.3640 C.3     
  40 C40           -8.0010     1.4737    -3.3325 C.3     
  41 C41          -10.4254     2.6671     0.4162 C.3     
  42 C42          -10.0999     2.3311    -1.0405 C.3     
  43 C43          -11.3769     2.4094    -1.8796 C.3     
  44 C44          -10.6108     5.2204    -3.0447 C.3     
  45 C45           -9.6458     5.2262    -1.8574 C.3     
  46 C46          -10.4157     5.5522    -0.5760 C.3     
  47 O47           -5.2466     3.2044     2.7340 O.3     
  48 H48           -3.7536     5.9328    -1.3205 H       
  49 H49           -0.6970     4.2269     0.9649 H       
  50 H50            0.2598     6.3864    -0.2805 H       
  51 H51           -5.0828     4.3744    -0.6345 H       
  52 H52           -3.7382     7.6636    -2.5700 H       
  53 H53           -1.4498    10.9054    -4.1510 H       
  54 H54            0.3850     8.1181    -1.4847 H       
  55 H55           -0.5636    12.4373    -3.8668 H       
  56 H56           -0.9506    14.0580    -3.2409 H       
  57 H57            0.7458    13.5867    -3.5023 H       
  58 H58            0.1571    13.4939    -1.0953 H       
  59 H59           -1.8370    11.3493    -1.9517 H       
  60 H60           -1.5189    11.9005    -0.2894 H       
  61 H61           -2.2783    13.0029    -1.4626 H       
  62 H62            2.8883     9.9271     0.4422 H       
  63 H63            1.7259     8.6386     0.8386 H       
  64 H64            2.2147     8.9072    -0.8518 H       
  65 H65           -0.0981     9.8365    -0.0809 H       
  66 H66            1.8603    11.7760     1.2139 H       
  67 H67            0.1709    12.2031     0.8508 H       
  68 H68            0.5302    10.8865     1.9935 H       
  69 H69            3.2253    12.1572     0.2858 H       
  70 H70            4.0032    13.3788    -0.7489 H       
  71 H71            2.2629    13.4918    -0.3930 H       
  72 H72            2.8727    12.5722    -2.7088 H       
  73 H73            3.3917    10.0369    -2.5754 H       
  74 H74            4.7350    11.1597    -2.2541 H       
  75 H75            3.9017    10.3585    -0.9006 H       
  76 H76           -5.2264     9.0555    -6.2133 H       
  77 H77           -6.6723     8.5138    -5.3277 H       
  78 H78           -4.6751     7.8947    -4.0544 H       
  79 H79           -6.6694     8.6437    -2.7855 H       
  80 H80           -5.1688     9.0863    -1.9367 H       
  81 H81           -6.0761    10.3208    -2.8428 H       
  82 H82           -7.4582    11.9317    -6.3090 H       
  83 H83           -6.5548    10.7832    -7.3253 H       
  84 H84           -8.0007    10.2415    -6.4397 H       
  85 H85           -6.3638     2.2569    -1.5824 H       
  86 H86           -7.4300     1.6130    -0.3108 H       
  87 H87           -5.1351     1.7000     0.5371 H       
  88 H88           -6.8382     3.9697     1.6618 H       
  89 H89           -6.6975     1.0009     2.3572 H       
  90 H90           -7.6780     2.2204     3.2056 H       
  91 H91           -8.0415     1.8067     1.5129 H       
  92 H92           -6.5434     3.3113    -4.6404 H       
  93 H93           -7.1371     4.7731    -3.8164 H       
  94 H94           -6.2199     3.5489    -2.9063 H       
  95 H95           -8.9992     3.2131    -4.1192 H       
  96 H96           -8.9449     0.9548    -3.1655 H       
  97 H97           -7.5746     1.1553    -4.2837 H       
  98 H98           -7.3078     1.2356    -2.5257 H       
  99 H99          -10.9237     3.6355     0.4630 H       
 100 H100         -11.0817     1.9005     0.8280 H       
 101 H101          -9.5027     2.7049     0.9953 H       
 102 H102          -9.6888     1.3232    -1.0977 H       
 103 H103         -11.1203     2.3550    -2.9376 H       
 104 H104         -12.0328     1.5780    -1.6216 H       
 105 H105         -11.8872     3.3511    -1.6775 H       
 106 H106         -10.9826     6.2307    -3.2156 H       
 107 H107         -10.0892     4.8697    -3.9351 H       
 108 H108         -11.4482     4.5567    -2.8290 H       
 109 H109          -8.8748     5.9794    -2.0195 H       
 110 H110          -9.7720     5.3841     0.2874 H       
 111 H111         -10.7307     6.5955    -0.5968 H       
 112 H112         -11.2931     4.9092    -0.5057 H       
 113 H113          -4.6025     3.8861     2.4986 H       
@<TRIPOS>BOND
   1    1    2 1
   2    1    5 1
   3    1   48 1
   4    2    3 2
   5    2    6 1
   6    3    4 1
   7    3   49 1
   8    4    5 2
   9    4   50 1
  10    5    9 1
  11    6    7 2
  12    6    8 am
  13    8   33 1
  14    8   51 1
  15    9   10 ar
  16    9   14 ar
  17   10   11 ar
  18   10   52 1
  19   11   12 ar
  20   11   26 1
  21   12   13 ar
  22   12   53 1
  23   13   14 ar
  24   13   15 1
  25   14   54 1
  26   15   16 1
  27   16   18 1
  28   16   21 1
  29   16   24 1
  30   17   18 1
  31   17   55 1
  32   17   56 1
  33   17   57 1
  34   18   19 1
  35   18   58 1
  36   19   59 1
  37   19   60 1
  38   19   61 1
  39   20   21 1
  40   20   62 1
  41   20   63 1
  42   20   64 1
  43   21   22 1
  44   21   65 1
  45   22   66 1
  46   22   67 1
  47   22   68 1
  48   23   24 1
  49   23   69 1
  50   23   70 1
  51   23   71 1
  52   24   25 1
  53   24   72 1
  54   25   73 1
  55   25   74 1
  56   25   75 1
  57   26   28 1
  58   27   28 1
  59   27   30 1
  60   27   76 1
  61   27   77 1
  62   28   29 1
  63   28   78 1
  64   29   79 1
  65   29   80 1
  66   29   81 1
  67   30   31 1
  68   31   82 1
  69   31   83 1
  70   31   84 1
  71   32   36 1
  72   32   33 1
  73   32   85 1
  74   32   86 1
  75   33   34 1
  76   33   87 1
  77   34   35 1
  78   34   47 1
  79   34   88 1
  80   35   89 1
  81   35   90 1
  82   35   91 1
  83   36   37 1
  84   37   39 1
  85   37   42 1
  86   37   45 1
  87   38   39 1
  88   38   92 1
  89   38   93 1
  90   38   94 1
  91   39   40 1
  92   39   95 1
  93   40   96 1
  94   40   97 1
  95   40   98 1
  96   41   42 1
  97   41   99 1
  98   41  100 1
  99   41  101 1
 100   42   43 1
 101   42  102 1
 102   43  103 1
 103   43  104 1
 104   43  105 1
 105   44   45 1
 106   44  106 1
 107   44  107 1
 108   44  108 1
 109   45   46 1
 110   45  109 1
 111   46  110 1
 112   46  111 1
 113   46  112 1
 114   47  113 1

#	End of record

