#	Name: ASD01814687
#	Creating user name:	WinNT
#	Creation time:	15. 06. 2019 19:32

#	Modifying user name:	WinNT
#	Modification time:	15. 06. 2019 19:32

#	Program:	/corina/corina34_cracker 3.40 0067  02.08.2006

@<TRIPOS>MOLECULE
ASD01814687
  48   52    0    0    0
SMALL
NO_CHARGES


@<TRIPOS>ATOM
   1 C1             0.2642     1.3082     0.7404 C.2     
   2 N2            -1.0235     1.7196     0.9704 N.pl3   
   3 N3            -1.8443     0.5881     0.9247 N.2     
   4 C4            -1.0988    -0.4701     0.6784 C.2     
   5 C5             0.2210    -0.0684     0.5564 C.2     
   6 C6            -1.1696    -1.9645     0.4823 C.3     
   7 N7             0.1922    -2.4472     0.2328 N.am    
   8 C8             1.0748    -1.2768     0.2699 C.3     
   9 C9            -1.2845     3.0421     1.1879 C.2     
  10 C10           -0.2588     3.9278     1.1721 C.2     
  11 C11            1.0449     3.4693     0.9335 C.2     
  12 N12            1.2694     2.1937     0.7224 N.2     
  13 C13            0.5618    -3.7235     0.0075 C.2     
  14 C14           -0.4345    -4.8083     0.1033 C.ar    
  15 O15            1.7160    -3.9813    -0.2748 O.2     
  16 C16           -0.6303    -5.6833    -0.9750 C.ar    
  17 C17           -1.5694    -6.6991    -0.8738 C.ar    
  18 C18           -2.3076    -6.8464     0.2843 C.ar    
  19 C19           -2.1169    -5.9842     1.3511 C.ar    
  20 C20           -1.1832    -4.9727     1.2700 C.ar    
  21 N21            0.1167    -5.5322    -2.1459 N.pl3   
  22 C22           -0.5172     5.3936     1.4085 C.3     
  23 C23           -2.6941     3.5106     1.4416 C.3     
  24 C24            2.1921     4.4463     0.9140 C.3     
  25 N25            0.9975    -4.4814    -2.4334 N.2     
  26 C26            1.5076    -4.6874    -3.6203 C.2     
  27 C27            0.9711    -5.8750    -4.1310 C.2     
  28 C28            0.1230    -6.3812    -3.2065 C.2     
  29 H29           -1.5701    -2.4363     1.3796 H       
  30 H30           -1.8056    -2.1951    -0.3724 H       
  31 H31            1.5728    -1.1577    -0.6924 H       
  32 H32            1.8173    -1.4000     1.0584 H       
  33 H33           -1.7237    -7.3754    -1.7015 H       
  34 H34           -3.0381    -7.6384     0.3582 H       
  35 H35           -2.6992    -6.1072     2.2523 H       
  36 H36           -1.0346    -4.3058     2.1063 H       
  37 H37           -0.4441     5.6081     2.4747 H       
  38 H38            0.2217     5.9847     0.8675 H       
  39 H39           -1.5162     5.6482     1.0544 H       
  40 H40           -2.8987     3.4843     2.5119 H       
  41 H41           -2.8097     4.5304     1.0745 H       
  42 H42           -3.3937     2.8559     0.9218 H       
  43 H43            2.6044     4.5427     1.9184 H       
  44 H44            2.9659     4.0846     0.2368 H       
  45 H45            1.8358     5.4182     0.5727 H       
  46 H46            2.2208    -4.0494    -4.1211 H       
  47 H47            1.1976    -6.3124    -5.0921 H       
  48 H48           -0.4478    -7.2936    -3.2965 H       
@<TRIPOS>BOND
   1    1    5 2
   2    1   12 1
   3    1    2 1
   4    2    3 1
   5    2    9 1
   6    3    4 2
   7    4    6 1
   8    4    5 1
   9    5    8 1
  10    6    7 1
  11    6   29 1
  12    6   30 1
  13    7    8 1
  14    7   13 am
  15    8   31 1
  16    8   32 1
  17    9   10 2
  18    9   23 1
  19   10   11 1
  20   10   22 1
  21   11   12 2
  22   11   24 1
  23   13   14 1
  24   13   15 2
  25   14   16 ar
  26   14   20 ar
  27   16   17 ar
  28   16   21 1
  29   17   18 ar
  30   17   33 1
  31   18   19 ar
  32   18   34 1
  33   19   20 ar
  34   19   35 1
  35   20   36 1
  36   21   25 1
  37   21   28 1
  38   22   37 1
  39   22   38 1
  40   22   39 1
  41   23   40 1
  42   23   41 1
  43   23   42 1
  44   24   43 1
  45   24   44 1
  46   24   45 1
  47   25   26 2
  48   26   27 1
  49   26   46 1
  50   27   28 2
  51   27   47 1
  52   28   48 1

#	End of record

