#	Name: ASD05213016
#	Creating user name:	WinNT
#	Creation time:	15. 06. 2019 20:57

#	Modifying user name:	WinNT
#	Modification time:	15. 06. 2019 20:57

#	Program:	/corina/corina34_cracker 3.40 0067  02.08.2006

@<TRIPOS>MOLECULE
ASD05213016
  32   34    0    0    0
SMALL
NO_CHARGES


@<TRIPOS>ATOM
   1 S1            -0.0225     1.8057     0.0120 S.3     
   2 C2             0.0021    -0.0041     0.0020 C.3     
   3 C3             1.7084     2.1353    -0.0028 C.2     
   4 N4             2.2712     3.3784    -0.0015 N.pl3   
   5 C5             3.6441     3.2001    -0.0156 C.ar    
   6 C6             3.8608     1.8121    -0.0251 C.ar    
   7 N7             2.6521     1.2212    -0.0110 N.2     
   8 C8             4.7487     4.0491    -0.0212 C.ar    
   9 N9             5.9663     3.5098    -0.0353 N.ar    
  10 C10            6.1317     2.2000    -0.0439 C.ar    
  11 N11            5.1197     1.3601    -0.0396 N.ar    
  12 C12           -1.4117    -0.5257     0.0127 C.ar    
  13 C13           -2.0693    -0.7576    -1.1824 C.ar    
  14 C14           -3.3635    -1.2350    -1.1799 C.ar    
  15 C15           -4.0098    -1.4843     0.0324 C.ar    
  16 C16           -3.3404    -1.2480     1.2347 C.ar    
  17 C17           -2.0444    -0.7759     1.2176 C.ar    
  18 C18           -5.3959    -1.9951     0.0429 C.2     
  19 O19           -6.0167    -2.2345     1.2142 O.3     
  20 O20           -5.9759    -2.1993    -1.0047 O.2     
  21 N21            4.5840     5.4260    -0.0126 N.pl3   
  22 H22            0.5123    -0.3556    -0.8948 H       
  23 H23            0.5293    -0.3651     0.8851 H       
  24 H24            1.7992     4.2258     0.0073 H       
  25 H25            7.1361     1.8033    -0.0557 H       
  26 H26           -1.5682    -0.5641    -2.1194 H       
  27 H27           -3.8757    -1.4153    -2.1135 H       
  28 H28           -3.8346    -1.4387     2.1759 H       
  29 H29           -1.5254    -0.5927     2.1468 H       
  30 H30           -6.9232    -2.5682     1.1705 H       
  31 H31            3.6923     5.8077    -0.0027 H       
  32 H32            5.3604     6.0074    -0.0166 H       
@<TRIPOS>BOND
   1    1    2 1
   2    1    3 1
   3    2   12 1
   4    2   22 1
   5    2   23 1
   6    3    4 1
   7    3    7 2
   8    4    5 1
   9    4   24 1
  10    5    6 ar
  11    5    8 ar
  12    6    7 1
  13    6   11 ar
  14    8    9 ar
  15    8   21 1
  16    9   10 ar
  17   10   11 ar
  18   10   25 1
  19   12   13 ar
  20   12   17 ar
  21   13   14 ar
  22   13   26 1
  23   14   15 ar
  24   14   27 1
  25   15   16 ar
  26   15   18 1
  27   16   17 ar
  28   16   28 1
  29   17   29 1
  30   18   19 1
  31   18   20 2
  32   19   30 1
  33   21   31 1
  34   21   32 1

#	End of record

