#	Name: ASD01940305
#	Creating user name:	WinNT
#	Creation time:	15. 06. 2019 20:12

#	Modifying user name:	WinNT
#	Modification time:	15. 06. 2019 20:12

#	Program:	/corina/corina34_cracker 3.40 0067  02.08.2006

@<TRIPOS>MOLECULE
ASD01940305
  38   39    0    0    0
SMALL
NO_CHARGES


@<TRIPOS>ATOM
   1 C1            -0.5568     1.4971     0.1497 C.3     
   2 C2            -0.4497    -0.0287     0.1141 C.3     
   3 C3             0.2000    -0.5247     1.4074 C.3     
   4 S4            -2.1076    -0.7477    -0.0440 S.o2    
   5 O5            -2.0243    -2.1477    -0.2725 O.2     
   6 O6            -2.9776    -0.2175     0.9466 O.2     
   7 N7            -2.6894    -0.1353    -1.4684 N.am    
   8 C8            -2.0253    -0.4085    -2.6717 C.ar    
   9 C9            -1.9657     0.5607    -3.6723 C.ar    
  10 C10           -1.3061     0.2848    -4.8621 C.ar    
  11 C11           -0.7094    -0.9519    -5.0518 C.ar    
  12 C12           -0.7704    -1.9124    -4.0572 C.ar    
  13 C13           -1.4213    -1.6411    -2.8673 C.ar    
  14 N14           -2.5706     1.8100    -3.4775 N.pl3   
  15 C15           -2.8514     2.6297    -4.5751 C.ar    
  16 C16           -3.8986     2.3106    -5.4340 C.ar    
  17 C17           -4.1730     3.1238    -6.5176 C.ar    
  18 C18           -3.4071     4.2532    -6.7479 C.ar    
  19 C19           -2.3657     4.5719    -5.8957 C.ar    
  20 C20           -2.0896     3.7668    -4.8071 C.ar    
  21 I21           -3.8260     5.4826    -8.3917 I       
  22 F22           -4.6456     1.2075    -5.2095 F       
  23 F23           -0.0675    -1.2203    -6.2098 F       
  24 F24           -1.2462     1.2206    -5.8347 F       
  25 H25            0.4395     1.9291     0.2447 H       
  26 H26           -1.0196     1.8505    -0.7717 H       
  27 H27           -1.1663     1.7988     1.0015 H       
  28 H28            0.1599    -0.3304    -0.7377 H       
  29 H29           -0.4096    -0.2230     2.2592 H       
  30 H30            0.2763    -1.6118     1.3821 H       
  31 H31            1.1963    -0.0927     1.5024 H       
  32 H32           -3.4899     0.4125    -1.4698 H       
  33 H33           -0.3048    -2.8751    -4.2089 H       
  34 H34           -1.4627    -2.3914    -2.0916 H       
  35 H35           -2.7945     2.1060    -2.5813 H       
  36 H36           -4.9855     2.8774    -7.1851 H       
  37 H37           -1.7697     5.4537    -6.0790 H       
  38 H38           -1.2787     4.0195    -4.1400 H       
@<TRIPOS>BOND
   1    1    2 1
   2    1   25 1
   3    1   26 1
   4    1   27 1
   5    2    3 1
   6    2    4 1
   7    2   28 1
   8    3   29 1
   9    3   30 1
  10    3   31 1
  11    4    5 2
  12    4    6 2
  13    4    7 am
  14    7    8 1
  15    7   32 1
  16    8    9 ar
  17    8   13 ar
  18    9   10 ar
  19    9   14 1
  20   10   11 ar
  21   10   24 1
  22   11   12 ar
  23   11   23 1
  24   12   13 ar
  25   12   33 1
  26   13   34 1
  27   14   15 1
  28   14   35 1
  29   15   16 ar
  30   15   20 ar
  31   16   17 ar
  32   16   22 1
  33   17   18 ar
  34   17   36 1
  35   18   19 ar
  36   18   21 1
  37   19   20 ar
  38   19   37 1
  39   20   38 1

#	End of record

