#	Name: ASD04230041
#	Creating user name:	WinNT
#	Creation time:	15. 06. 2019 20:48

#	Modifying user name:	WinNT
#	Modification time:	15. 06. 2019 20:48

#	Program:	/corina/corina34_cracker 3.40 0067  02.08.2006

@<TRIPOS>MOLECULE
ASD04230041
  29   31    0    0    0
SMALL
NO_CHARGES


@<TRIPOS>ATOM
   1 N1            -0.0169     1.3927     0.0097 N.pl3   
   2 C2             0.0021    -0.0041     0.0020 C.ar    
   3 C3             1.2125    -0.6815    -0.0132 C.ar    
   4 C4             1.2262    -2.0736    -0.0208 C.ar    
   5 C5             0.0237    -2.7789    -0.0132 C.ar    
   6 C6            -1.1767    -2.0975     0.0019 C.ar    
   7 C7            -1.1916    -0.7155     0.0153 C.ar    
   8 O8             6.0001    -5.0299    -0.0657 O.3     
   9 C9             5.5626    -6.3283    -0.5005 C.3     
  10 C10            4.0740    -6.3474    -0.0796 C.3     
  11 C11            3.7351    -4.8692    -0.0612 C.ar    
  12 C12            4.9402    -4.1754    -0.0624 C.ar    
  13 C13            2.5347    -4.1994    -0.0453 C.ar    
  14 C14            2.5172    -2.8046    -0.0376 C.ar    
  15 C15            3.7211    -2.1029    -0.0462 C.ar    
  16 C16            4.9192    -2.7818    -0.0591 C.ar    
  17 H17            0.8165     1.8891     0.0044 H       
  18 H18           -0.8634     1.8662     0.0163 H       
  19 H19            2.1415    -0.1307    -0.0194 H       
  20 H20            0.0313    -3.8589    -0.0195 H       
  21 H21           -2.1071    -2.6460     0.0075 H       
  22 H22           -2.1334    -0.1872     0.0317 H       
  23 H23            5.6593    -6.4262    -1.5818 H       
  24 H24            6.1184    -7.1142     0.0107 H       
  25 H25            3.4680    -6.8769    -0.8148 H       
  26 H26            3.9547    -6.7868     0.9107 H       
  27 H27            1.6069    -4.7521    -0.0390 H       
  28 H28            3.7145    -1.0229    -0.0435 H       
  29 H29            5.8482    -2.2310    -0.0657 H       
@<TRIPOS>BOND
   1    1    2 1
   2    1   17 1
   3    1   18 1
   4    2    3 ar
   5    2    7 ar
   6    3    4 ar
   7    3   19 1
   8    4    5 ar
   9    4   14 1
  10    5    6 ar
  11    5   20 1
  12    6    7 ar
  13    6   21 1
  14    7   22 1
  15    8    9 1
  16    8   12 1
  17    9   10 1
  18    9   23 1
  19    9   24 1
  20   10   11 1
  21   10   25 1
  22   10   26 1
  23   11   12 ar
  24   11   13 ar
  25   12   16 ar
  26   13   14 ar
  27   13   27 1
  28   14   15 ar
  29   15   16 ar
  30   15   28 1
  31   16   29 1

#	End of record

