#	Name: ASD08178122
#	Creating user name:	WinNT
#	Creation time:	15. 06. 2019 21:18

#	Modifying user name:	WinNT
#	Modification time:	15. 06. 2019 21:18

#	Program:	/corina/corina34_cracker 3.40 0067  02.08.2006

@<TRIPOS>MOLECULE
ASD08178122
  68   71    0    0    0
SMALL
NO_CHARGES


@<TRIPOS>ATOM
   1 C1            -0.0184     1.5028     0.0103 C.2     
   2 C2             0.0021    -0.0041     0.0020 C.3     
   3 C3             0.0221    -0.5218     1.4416 C.3     
   4 C4             0.0429    -2.0516     1.4332 C.3     
   5 C5             0.0630    -2.5693     2.8728 C.3     
   6 C6             0.0834    -4.0761     2.8645 C.2     
   7 N7             1.1396    -4.8258     2.8513 N.2     
   8 N8             0.9467    -6.0734     2.8463 N.2     
   9 C9            -0.2824    -6.4936     2.8547 C.2     
  10 S10           -1.3267    -5.1359     2.8788 S.3     
  11 N11           -0.6838    -7.8252     2.8506 N.am    
  12 N12            1.0171     2.2809     0.0046 N.2     
  13 C13            0.2391    -8.8073     2.8374 C.2     
  14 O14            1.4197    -8.5298     2.8290 O.2     
  15 C15           -0.1960   -10.2501     2.8329 C.3     
  16 C16           -0.9267   -10.5505     1.5496 C.ar    
  17 N17            0.7904     3.5228     0.0134 N.2     
  18 C18           -0.4495     3.9094     0.0274 C.2     
  19 S19           -1.4568     2.5237     0.0218 S.3     
  20 C20           -0.8833   -11.1738    -0.7619 C.ar    
  21 C21           -2.3068   -10.4773     1.5078 C.ar    
  22 C22           -2.9789   -10.7522     0.3327 C.ar    
  23 C23           -2.2680   -11.1015    -0.8063 C.ar    
  24 C24           -0.2155   -10.8932     0.4145 C.ar    
  25 N25           -0.8870     5.2295     0.0390 N.am    
  26 C26            0.0089     6.2364     0.0358 C.2     
  27 C27           -0.4651     7.6668     0.0485 C.3     
  28 O28            1.1967     5.9912     0.0228 O.2     
  29 C29           -1.1803     7.9476     1.3449 C.ar    
  30 O30            0.6579     8.5419    -0.0751 O.3     
  31 C31           -2.5569     7.8369     1.4116 C.ar    
  32 C32           -3.2149     8.0932     2.5989 C.ar    
  33 C33           -2.4933     8.4620     3.7249 C.ar    
  34 C34           -1.1121     8.5723     3.6554 C.ar    
  35 C35           -0.4584     8.3098     2.4671 C.ar    
  36 O36           -3.1383     8.7152     4.8940 O.3     
  37 C37           -2.3313     9.0898     6.0123 C.3     
  38 O38            0.9524   -11.0942     2.9360 O.3     
  39 O39           -2.9269   -11.3720    -1.9637 O.3     
  40 C40           -2.1304   -11.7248    -3.0965 C.3     
  41 H41           -0.8875    -0.3767    -0.5057 H       
  42 H42            0.8922    -0.3525    -0.5218 H       
  43 H43            0.9118    -0.1491     1.9494 H       
  44 H44           -0.8680    -0.1733     1.9655 H       
  45 H45           -0.8467    -2.4242     0.9255 H       
  46 H46            0.9330    -2.4000     0.9094 H       
  47 H47            0.9526    -2.1967     3.3806 H       
  48 H48           -0.8271    -2.2209     3.3967 H       
  49 H49           -1.6281    -8.0470     2.8573 H       
  50 H50           -0.8581   -10.4325     3.6793 H       
  51 H51           -0.3274   -11.4418    -1.6482 H       
  52 H52           -2.8598   -10.2054     2.3948 H       
  53 H53           -4.0570   -10.6957     0.3007 H       
  54 H54            0.8625   -10.9490     0.4495 H       
  55 H55           -1.8369     5.4256     0.0495 H       
  56 H56           -1.1471     7.8310    -0.7857 H       
  57 H57            1.3079     8.4504     0.6350 H       
  58 H58           -3.1183     7.5501     0.5347 H       
  59 H59           -4.2902     8.0070     2.6505 H       
  60 H60           -0.5481     8.8596     4.5305 H       
  61 H61            0.6169     8.3952     2.4125 H       
  62 H62           -1.7843    10.0025     5.7760 H       
  63 H63           -2.9693     9.2626     6.8790 H       
  64 H64           -1.6249     8.2900     6.2347 H       
  65 H65            1.5867   -10.9852     2.2143 H       
  66 H66           -1.4499   -10.9063    -3.3313 H       
  67 H67           -1.5548   -12.6224    -2.8705 H       
  68 H68           -2.7789   -11.9148    -3.9517 H       
@<TRIPOS>BOND
   1    1    2 1
   2    1   12 2
   3    1   19 1
   4    2    3 1
   5    2   41 1
   6    2   42 1
   7    3    4 1
   8    3   43 1
   9    3   44 1
  10    4    5 1
  11    4   45 1
  12    4   46 1
  13    5    6 1
  14    5   47 1
  15    5   48 1
  16    6    7 2
  17    6   10 1
  18    7    8 1
  19    8    9 2
  20    9   10 1
  21    9   11 1
  22   11   13 am
  23   11   49 1
  24   12   17 1
  25   13   14 2
  26   13   15 1
  27   15   16 1
  28   15   38 1
  29   15   50 1
  30   16   21 ar
  31   16   24 ar
  32   17   18 2
  33   18   19 1
  34   18   25 1
  35   20   24 ar
  36   20   23 ar
  37   20   51 1
  38   21   22 ar
  39   21   52 1
  40   22   23 ar
  41   22   53 1
  42   23   39 1
  43   24   54 1
  44   25   26 am
  45   25   55 1
  46   26   27 1
  47   26   28 2
  48   27   29 1
  49   27   30 1
  50   27   56 1
  51   29   31 ar
  52   29   35 ar
  53   30   57 1
  54   31   32 ar
  55   31   58 1
  56   32   33 ar
  57   32   59 1
  58   33   34 ar
  59   33   36 1
  60   34   35 ar
  61   34   60 1
  62   35   61 1
  63   36   37 1
  64   37   62 1
  65   37   63 1
  66   37   64 1
  67   38   65 1
  68   39   40 1
  69   40   66 1
  70   40   67 1
  71   40   68 1

#	End of record

