#	Name: ASD02030044
#	Creating user name:	WinNT
#	Creation time:	15. 06. 2019 20:14

#	Modifying user name:	WinNT
#	Modification time:	15. 06. 2019 20:14

#	Program:	/corina/corina34_cracker 3.40 0067  02.08.2006

@<TRIPOS>MOLECULE
ASD02030044
  48   52    0    0    0
SMALL
NO_CHARGES


@<TRIPOS>ATOM
   1 C1             0.6817    -0.1071    -0.0285 C.ar    
   2 C2             0.6922    -1.4474    -0.3834 C.ar    
   3 C3             1.9051    -2.0336    -0.7115 C.ar    
   4 C4             3.0551    -1.2681    -0.6741 C.ar    
   5 N5             3.0075     0.0044    -0.3313 N.ar    
   6 C6             1.8720     0.5950    -0.0136 C.ar    
   7 C7            -0.5842    -2.2480    -0.4114 C.3     
   8 C8            -1.2049    -2.1561    -1.7815 C.ar    
   9 C9            -0.8736    -3.0832    -2.7526 C.ar    
  10 C10           -2.1088    -1.1481    -2.0632 C.ar    
  11 C11           -1.4405    -3.0018    -4.0093 C.ar    
  12 C12           -2.3446    -1.9872    -4.2973 C.ar    
  13 C13           -2.6795    -1.0609    -3.3177 C.ar    
  14 N14           -2.9195    -1.9017    -5.5673 N.am    
  15 S15           -4.5493    -1.6530    -5.7234 S.o2    
  16 C16           -5.3605    -3.0245    -4.9714 C.ar    
  17 C17           -5.7898    -2.9382    -3.6564 C.ar    
  18 C18           -5.5722    -4.1798    -5.6940 C.ar    
  19 C19           -6.2134    -5.2596    -5.0963 C.ar    
  20 C20           -6.6439    -5.1773    -3.7650 C.ar    
  21 C21           -6.4265    -4.0028    -3.0543 C.ar    
  22 O22           -4.8599    -0.5174    -4.9277 O.2     
  23 O23           -4.8357    -1.7302    -7.1131 O.2     
  24 C24           -6.5946    -6.6084    -5.5568 C.ar    
  25 C25           -7.2211    -7.2201    -4.4624 C.ar    
  26 O26           -7.2302    -6.3478    -3.4305 O.3     
  27 C27           -6.4529    -7.2953    -6.7579 C.ar    
  28 C28           -6.9320    -8.5837    -6.8695 C.ar    
  29 C29           -7.5521    -9.1912    -5.7891 C.ar    
  30 C30           -7.6974    -8.5193    -4.5938 C.ar    
  31 H31           -0.2456     0.3831     0.2288 H       
  32 H32            1.9506    -3.0755    -0.9924 H       
  33 H33            4.0038    -1.7172    -0.9283 H       
  34 H34            1.8724     1.6392     0.2621 H       
  35 H35           -0.3643    -3.2905    -0.1814 H       
  36 H36           -1.2784    -1.8511     0.3293 H       
  37 H37           -0.1703    -3.8715    -2.5281 H       
  38 H38           -2.3690    -0.4285    -1.3010 H       
  39 H39           -1.1811    -3.7260    -4.7674 H       
  40 H40           -3.3820    -0.2709    -3.5384 H       
  41 H41           -2.3641    -1.9880    -6.3579 H       
  42 H42           -5.6237    -2.0287    -3.0981 H       
  43 H43           -5.2417    -4.2457    -6.7201 H       
  44 H44           -6.7526    -3.9255    -2.0276 H       
  45 H45           -5.9700    -6.8216    -7.5998 H       
  46 H46           -6.8242    -9.1200    -7.8006 H       
  47 H47           -7.9247   -10.2004    -5.8842 H       
  48 H48           -8.1823    -9.0029    -3.7588 H       
@<TRIPOS>BOND
   1    1    2 ar
   2    1    6 ar
   3    1   31 1
   4    2    3 ar
   5    2    7 1
   6    3    4 ar
   7    3   32 1
   8    4    5 ar
   9    4   33 1
  10    5    6 ar
  11    6   34 1
  12    7    8 1
  13    7   35 1
  14    7   36 1
  15    8    9 ar
  16    8   10 ar
  17    9   11 ar
  18    9   37 1
  19   10   13 ar
  20   10   38 1
  21   11   12 ar
  22   11   39 1
  23   12   13 ar
  24   12   14 1
  25   13   40 1
  26   14   15 am
  27   14   41 1
  28   15   16 1
  29   15   22 2
  30   15   23 2
  31   16   17 ar
  32   16   18 ar
  33   17   21 ar
  34   17   42 1
  35   18   19 ar
  36   18   43 1
  37   19   20 ar
  38   19   24 1
  39   20   21 ar
  40   20   26 1
  41   21   44 1
  42   24   25 ar
  43   24   27 ar
  44   25   26 1
  45   25   30 ar
  46   27   28 ar
  47   27   45 1
  48   28   29 ar
  49   28   46 1
  50   29   30 ar
  51   29   47 1
  52   30   48 1

#	End of record

