#	Name: ASD03330723
#	Creating user name:	WinNT
#	Creation time:	15. 06. 2019 20:37

#	Modifying user name:	WinNT
#	Modification time:	15. 06. 2019 20:37

#	Program:	/corina/corina34_cracker 3.40 0067  02.08.2006

@<TRIPOS>MOLECULE
ASD03330723
  71   72    0    0    0
SMALL
NO_CHARGES


@<TRIPOS>ATOM
   1 C1            -0.8637     2.2699    -1.5741 C.2     
   2 N2            -1.0721     1.0031    -2.0206 N.pl3   
   3 C3             0.4279     2.3367    -1.1456 C.2     
   4 N4             0.9936     1.1278    -1.3491 N.2     
   5 C5             0.1025     0.3209    -1.8798 C.2     
   6 C6             0.3321    -1.0835    -2.2595 C.2     
   7 C7             1.0898     3.5182    -0.5644 C.2     
   8 O8             0.4721     4.5575    -0.4317 O.2     
   9 C9             3.0376     4.6216     0.3978 C.3     
  10 N10            2.3796     3.4471    -0.1800 N.am    
  11 C11            2.7463     4.6827     1.8986 C.3     
  12 C12            3.2062     3.3823     2.5607 C.3     
  13 C13            3.4983     5.8633     2.5164 C.3     
  14 C14            4.5253     4.5227     0.1784 C.2     
  15 N15            5.2742     5.6418     0.1230 N.am    
  16 O16            5.0486     3.4359     0.0517 O.2     
  17 C17           -2.3396     0.4829    -2.5404 C.3     
  18 C18           -2.9165     1.4812    -3.5489 C.3     
  19 C19           -3.7702     2.5145    -2.8209 C.3     
  20 N20           -3.2282     2.8035    -1.4917 N.3     
  21 C21           -1.8795     3.3828    -1.5789 C.3     
  22 C22            6.7002     5.5537    -0.2010 C.3     
  23 C23            1.2432     4.8636     2.1194 C.3     
  24 C24           -4.1304     3.6815    -0.7348 C.3     
  25 C25            1.5259    -1.6356    -2.0721 C.2     
  26 C26            1.7608    -3.0726    -2.4606 C.3     
  27 N27            2.9064    -3.1511    -3.3769 N.3     
  28 C28            3.3146    -4.5458    -3.5910 C.3     
  29 C29            4.0474    -5.0590    -2.3498 C.3     
  30 C30            3.9091    -2.2283    -5.4116 C.3     
  31 C31            2.6061    -2.4886    -4.6532 C.3     
  32 H32           -0.4700    -1.6645    -2.6902 H       
  33 H33            2.6587     5.5235    -0.0829 H       
  34 H34            2.8723     2.6182    -0.2858 H       
  35 H35            4.2771     3.2534     2.4033 H       
  36 H36            2.9987     3.4258     3.6298 H       
  37 H37            2.6705     2.5412     2.1205 H       
  38 H38            3.1070     6.7960     2.1102 H       
  39 H39            3.3642     5.8535     3.5981 H       
  40 H40            4.5595     5.7814     2.2811 H       
  41 H41            4.8690     6.5057     0.2977 H       
  42 H42           -2.1660    -0.4737    -3.0333 H       
  43 H43           -3.0426     0.3480    -1.7184 H       
  44 H44           -2.1008     1.9853    -4.0672 H       
  45 H45           -3.5318     0.9490    -4.2744 H       
  46 H46           -3.7941     3.4344    -3.4051 H       
  47 H47           -4.7853     2.1311    -2.7176 H       
  48 H48           -1.7077     4.0367    -0.7239 H       
  49 H49           -1.7879     3.9558    -2.5016 H       
  50 H50            7.1357     6.5529    -0.1989 H       
  51 H51            7.2042     4.9361     0.5423 H       
  52 H52            6.8216     5.1065    -1.1876 H       
  53 H53            0.7075     4.0225     1.6793 H       
  54 H54            1.0357     4.9071     3.1886 H       
  55 H55            0.9156     5.7900     1.6477 H       
  56 H56           -5.0988     3.1947    -0.6191 H       
  57 H57           -3.7038     3.8801     0.2484 H       
  58 H58           -4.2581     4.6213    -1.2720 H       
  59 H59            2.3279    -1.0546    -1.6414 H       
  60 H60            1.9692    -3.6611    -1.5672 H       
  61 H61            0.8724    -3.4651    -2.9553 H       
  62 H62            2.4318    -5.1592    -3.7713 H       
  63 H63            3.9783    -4.6018    -4.4538 H       
  64 H64            4.4405    -6.0565    -2.5464 H       
  65 H65            4.8697    -4.3854    -2.1088 H       
  66 H66            3.3540    -5.1009    -1.5098 H       
  67 H67            4.5981    -1.6771    -4.7717 H       
  68 H68            4.3596    -3.1789    -5.6968 H       
  69 H69            3.6978    -1.6433    -6.3068 H       
  70 H70            1.9590    -3.1297    -5.2519 H       
  71 H71            2.1020    -1.5414    -4.4611 H       
@<TRIPOS>BOND
   1    1    2 1
   2    1    3 2
   3    1   21 1
   4    2   17 1
   5    2    5 1
   6    3    4 1
   7    3    7 1
   8    4    5 2
   9    5    6 1
  10    6   25 2
  11    6   32 1
  12    7    8 2
  13    7   10 am
  14    9   10 1
  15    9   11 1
  16    9   14 1
  17    9   33 1
  18   10   34 1
  19   11   12 1
  20   11   13 1
  21   11   23 1
  22   12   35 1
  23   12   36 1
  24   12   37 1
  25   13   38 1
  26   13   39 1
  27   13   40 1
  28   14   15 am
  29   14   16 2
  30   15   22 1
  31   15   41 1
  32   17   18 1
  33   17   42 1
  34   17   43 1
  35   18   19 1
  36   18   44 1
  37   18   45 1
  38   19   20 1
  39   19   46 1
  40   19   47 1
  41   20   21 1
  42   20   24 1
  43   21   48 1
  44   21   49 1
  45   22   50 1
  46   22   51 1
  47   22   52 1
  48   23   53 1
  49   23   54 1
  50   23   55 1
  51   24   56 1
  52   24   57 1
  53   24   58 1
  54   25   26 1
  55   25   59 1
  56   26   27 1
  57   26   60 1
  58   26   61 1
  59   27   28 1
  60   27   31 1
  61   28   29 1
  62   28   62 1
  63   28   63 1
  64   29   64 1
  65   29   65 1
  66   29   66 1
  67   30   31 1
  68   30   67 1
  69   30   68 1
  70   30   69 1
  71   31   70 1
  72   31   71 1

#	End of record

