#	Name: ASD01811801
#	Creating user name:	WinNT
#	Creation time:	15. 06. 2019 19:27

#	Modifying user name:	WinNT
#	Modification time:	15. 06. 2019 19:27

#	Program:	/corina/corina34_cracker 3.40 0067  02.08.2006

@<TRIPOS>MOLECULE
ASD01811801
  56   59    0    0    0
SMALL
NO_CHARGES


@<TRIPOS>ATOM
   1 C1            -0.1916     1.4837    -0.2110 C.ar    
   2 C2            -0.1022     0.1021    -0.1865 C.ar    
   3 C3             1.1292    -0.5177    -0.3074 C.ar    
   4 C4             2.2762     0.2345    -0.4535 C.ar    
   5 C5             2.1940     1.6281    -0.4795 C.ar    
   6 C6             0.9462     2.2433    -0.3562 C.ar    
   7 C7            -1.3492    -0.7289    -0.0273 C.3     
   8 C8            -1.5527    -1.0652     1.4513 C.3     
   9 C9             1.2176    -2.0219    -0.2787 C.3     
  10 C10            2.6415    -2.4463    -0.5304 C.ar    
  11 C11            3.5023    -2.6396     0.5344 C.ar    
  12 C12            4.8078    -3.0291     0.3069 C.ar    
  13 C13            5.2555    -3.2264    -0.9924 C.ar    
  14 C14            4.3888    -3.0315    -2.0594 C.ar    
  15 C15            3.0830    -2.6472    -1.8253 C.ar    
  16 N16            6.5800    -3.6212    -1.2266 N.pl3   
  17 N17            7.5564    -3.8525    -0.2490 N.2     
  18 C18            8.6635    -4.2045    -0.8518 C.2     
  19 C19            8.4289    -4.2090    -2.2311 C.2     
  20 C20            7.1398    -3.8520    -2.4357 C.2     
  21 C21            3.2175     2.6815    -0.6195 C.2     
  22 N22            2.6434     3.8965    -0.5865 N.am    
  23 C23            1.1950     3.7295    -0.4214 C.3     
  24 O24            4.4095     2.4796    -0.7459 O.2     
  25 C25            3.3477     5.1764    -0.6973 C.3     
  26 C26            3.4330     5.5858    -2.1690 C.3     
  27 C27            4.0837     4.4597    -2.9748 C.3     
  28 O28            2.1183     5.8330    -2.6716 O.3     
  29 C29            4.2751     6.8568    -2.2968 C.3     
  30 H30           -1.1544     1.9645    -0.1205 H       
  31 H31            3.2352    -0.2532    -0.5471 H       
  32 H32           -2.2089    -0.1679    -0.3939 H       
  33 H33           -1.2467    -1.6513    -0.5990 H       
  34 H34           -0.6930    -1.6262     1.8179 H       
  35 H35           -1.6552    -0.1429     2.0230 H       
  36 H36           -2.4547    -1.6663     1.5665 H       
  37 H37            0.8970    -2.3862     0.6973 H       
  38 H38            0.5722    -2.4386    -1.0520 H       
  39 H39            3.1536    -2.4856     1.5449 H       
  40 H40            5.4798    -3.1795     1.1389 H       
  41 H41            4.7343    -3.1840    -3.0713 H       
  42 H42            2.4083    -2.4955    -2.6549 H       
  43 H43            9.5975    -4.4491    -0.3678 H       
  44 H44            9.1486    -4.4574    -2.9972 H       
  45 H45            6.6480    -3.7618    -3.3930 H       
  46 H46            0.6688     4.1603    -1.2733 H       
  47 H47            0.8660     4.2053     0.5024 H       
  48 H48            2.8051     5.9391    -0.1388 H       
  49 H49            4.3534     5.0741    -0.2898 H       
  50 H50            3.4837     3.5542    -2.8838 H       
  51 H51            4.1444     4.7514    -4.0233 H       
  52 H52            5.0864     4.2712    -2.5915 H       
  53 H53            1.6453     6.5366    -2.2066 H       
  54 H54            5.2779     6.6683    -1.9134 H       
  55 H55            4.3359     7.1485    -3.3453 H       
  56 H56            3.8115     7.6591    -1.7227 H       
@<TRIPOS>BOND
   1    1    2 ar
   2    1    6 ar
   3    1   30 1
   4    2    3 ar
   5    2    7 1
   6    3    4 ar
   7    3    9 1
   8    4    5 ar
   9    4   31 1
  10    5    6 ar
  11    5   21 1
  12    6   23 1
  13    7    8 1
  14    7   32 1
  15    7   33 1
  16    8   34 1
  17    8   35 1
  18    8   36 1
  19    9   10 1
  20    9   37 1
  21    9   38 1
  22   10   11 ar
  23   10   15 ar
  24   11   12 ar
  25   11   39 1
  26   12   13 ar
  27   12   40 1
  28   13   14 ar
  29   13   16 1
  30   14   15 ar
  31   14   41 1
  32   15   42 1
  33   16   17 1
  34   16   20 1
  35   17   18 2
  36   18   19 1
  37   18   43 1
  38   19   20 2
  39   19   44 1
  40   20   45 1
  41   21   22 am
  42   21   24 2
  43   22   23 1
  44   22   25 1
  45   23   46 1
  46   23   47 1
  47   25   26 1
  48   25   48 1
  49   25   49 1
  50   26   27 1
  51   26   28 1
  52   26   29 1
  53   27   50 1
  54   27   51 1
  55   27   52 1
  56   28   53 1
  57   29   54 1
  58   29   55 1
  59   29   56 1

#	End of record

