#	Name: ASD01208753
#	Creating user name:	WinNT
#	Creation time:	15. 06. 2019 19:10

#	Modifying user name:	WinNT
#	Modification time:	15. 06. 2019 19:10

#	Program:	/corina/corina34_cracker 3.40 0067  02.08.2006

@<TRIPOS>MOLECULE
ASD01208753
  53   56    0    0    0
SMALL
NO_CHARGES


@<TRIPOS>ATOM
   1 C1            -0.6243     1.5515    -0.5835 C.2     
   2 C2            -0.3235     0.1105    -0.4482 C.ar    
   3 C3            -1.3553    -0.8014    -0.2220 C.ar    
   4 C4            -1.0691    -2.1508    -0.0964 C.ar    
   5 C5             0.2416    -2.5961    -0.1952 C.ar    
   6 C6             1.2701    -1.6930    -0.4200 C.ar    
   7 C7             0.9920    -0.3423    -0.5521 C.ar    
   8 O8             0.2758     2.3444    -0.7805 O.2     
   9 N9            -1.8971     1.9855    -0.4939 N.am    
  10 O10            2.5519    -2.1344    -0.5154 O.3     
  11 C11            4.8905    -1.6998    -0.0878 C.3     
  12 C12            3.5732    -1.1414    -0.6299 C.3     
  13 C13            3.7487    -0.7576    -2.1006 C.3     
  14 O14            5.3233    -2.7840    -0.9119 O.3     
  15 C15            6.5517    -3.3801    -0.4903 C.3     
  16 O16           -2.0730    -3.0397     0.1244 O.3     
  17 C17           -2.8456    -3.4049    -0.9322 C.ar    
  18 C18           -2.5311    -2.9608    -2.2058 C.ar    
  19 C19           -3.3273    -3.3383    -3.2878 C.ar    
  20 C20           -4.4361    -4.1617    -3.0787 C.ar    
  21 C21           -4.7399    -4.5981    -1.8058 C.ar    
  22 C22           -3.9466    -4.2277    -0.7352 C.ar    
  23 O23           -3.6780    -3.1552    -5.7758 O.3     
  24 C24           -2.9990    -2.8686    -4.6492 C.2     
  25 N25           -1.9888    -2.0921    -4.9831 N.2     
  26 N26           -2.0106    -1.8864    -6.2531 N.2     
  27 C27           -3.0344    -2.5226    -6.7800 C.2     
  28 C28           -3.3991    -2.5412    -8.1646 C.1     
  29 N29           -3.6884    -2.5559    -9.2631 N.1     
  30 S30           -3.7428     4.0265    -0.5290 S.3     
  31 C31           -2.1798     3.3399    -0.6211 C.2     
  32 N32           -1.2969     4.2661    -0.8262 N.2     
  33 C33           -1.7420     5.5058    -0.9217 C.2     
  34 C34           -3.0651     5.6315    -0.7907 C.2     
  35 Cl35          -3.9607     7.1167    -0.8652 Cl      
  36 H36           -2.3755    -0.4555    -0.1447 H       
  37 H37            0.4615    -3.6489    -0.0964 H       
  38 H38            1.7930     0.3596    -0.7313 H       
  39 H39           -2.6158     1.3524    -0.3407 H       
  40 H40            5.6471    -0.9151    -0.0927 H       
  41 H41            4.7422    -2.0552     0.9319 H       
  42 H42            3.2886    -0.2597    -0.0558 H       
  43 H43            2.8103    -0.3598    -2.4868 H       
  44 H44            4.5277    -0.0002    -2.1879 H       
  45 H45            4.0333    -1.6394    -2.6747 H       
  46 H46            7.3428    -2.6303    -0.5036 H       
  47 H47            6.4379    -3.7704     0.5210 H       
  48 H48            6.8115    -4.1943    -1.1669 H       
  49 H49           -1.6727    -2.3241    -2.3609 H       
  50 H50           -5.0554    -4.4562    -3.9130 H       
  51 H51           -5.5975    -5.2347    -1.6454 H       
  52 H52           -4.1867    -4.5764     0.2583 H       
  53 H53           -1.0893     6.3492    -1.0922 H       
@<TRIPOS>BOND
   1    1    2 1
   2    1    8 2
   3    1    9 am
   4    2    3 ar
   5    2    7 ar
   6    3    4 ar
   7    3   36 1
   8    4    5 ar
   9    4   16 1
  10    5    6 ar
  11    5   37 1
  12    6    7 ar
  13    6   10 1
  14    7   38 1
  15    9   31 1
  16    9   39 1
  17   10   12 1
  18   11   12 1
  19   11   14 1
  20   11   40 1
  21   11   41 1
  22   12   13 1
  23   12   42 1
  24   13   43 1
  25   13   44 1
  26   13   45 1
  27   14   15 1
  28   15   46 1
  29   15   47 1
  30   15   48 1
  31   16   17 1
  32   17   18 ar
  33   17   22 ar
  34   18   19 ar
  35   18   49 1
  36   19   20 ar
  37   19   24 1
  38   20   21 ar
  39   20   50 1
  40   21   22 ar
  41   21   51 1
  42   22   52 1
  43   23   24 1
  44   23   27 1
  45   24   25 2
  46   25   26 1
  47   26   27 2
  48   27   28 1
  49   28   29 3
  50   30   31 1
  51   30   34 1
  52   31   32 2
  53   32   33 1
  54   33   34 2
  55   33   53 1
  56   34   35 1

#	End of record

