#	Name: ASD02198376
#	Creating user name:	WinNT
#	Creation time:	15. 06. 2019 20:19

#	Modifying user name:	WinNT
#	Modification time:	15. 06. 2019 20:19

#	Program:	/corina/corina34_cracker 3.40 0067  02.08.2006

@<TRIPOS>MOLECULE
ASD02198376
  33   35    0    0    0
SMALL
NO_CHARGES


@<TRIPOS>ATOM
   1 C1            -0.1417     1.5988     0.3888 C.2     
   2 C2            -0.2007     0.2655     0.3736 C.2     
   3 C3             1.1333     2.1270     0.2780 C.2     
   4 C4             2.1088     1.2237     0.1730 C.2     
   5 S5             1.4215    -0.3947     0.2120 S.3     
   6 S6             3.8243     1.5950     0.0186 S.o2    
   7 N7             4.4485     1.6739     1.5505 N.am    
   8 C8             4.3776     0.5633     2.3901 C.ar    
   9 C9             4.1656     0.7343     3.7768 C.ar    
  10 C10            4.0968    -0.4077     4.6119 C.ar    
  11 C11            4.2397    -1.6887     4.0553 C.ar    
  12 C12            4.4458    -1.8265     2.7014 C.ar    
  13 C13            4.5080    -0.7046     1.8715 C.ar    
  14 N14            4.0307     1.9534     4.3051 N.ar    
  15 C15            3.8341     2.1223     5.5903 C.ar    
  16 C16            3.7561     1.0431     6.4673 C.ar    
  17 C17            3.8853    -0.2312     5.9926 C.ar    
  18 O18            4.4249     0.4665    -0.6018 O.2     
  19 O19            3.9039     2.9095    -0.5153 O.2     
  20 O20            4.5842    -3.0675     2.1655 O.3     
  21 C21            4.5048    -4.1751     3.0650 C.3     
  22 Br22          -1.7857    -0.7573     0.5067 Br      
  23 H23           -1.0219     2.2185     0.4763 H       
  24 H24            1.3235     3.1902     0.2764 H       
  25 H25            4.8636     2.4928     1.8635 H       
  26 H26            4.1885    -2.5629     4.6874 H       
  27 H27            4.6701    -0.8335     0.8115 H       
  28 H28            3.7303     3.1245     5.9791 H       
  29 H29            3.5934     1.2136     7.5213 H       
  30 H30            3.8272    -1.0798     6.6580 H       
  31 H31            3.5318    -4.1751     3.5563 H       
  32 H32            4.6312    -5.1042     2.5092 H       
  33 H33            5.2908    -4.0908     3.8154 H       
@<TRIPOS>BOND
   1    1    2 2
   2    1    3 1
   3    1   23 1
   4    2   22 1
   5    2    5 1
   6    3    4 2
   7    3   24 1
   8    4    5 1
   9    4    6 1
  10    6    7 am
  11    6   18 2
  12    6   19 2
  13    7    8 1
  14    7   25 1
  15    8    9 ar
  16    8   13 ar
  17    9   10 ar
  18    9   14 ar
  19   10   11 ar
  20   10   17 ar
  21   11   12 ar
  22   11   26 1
  23   12   13 ar
  24   12   20 1
  25   13   27 1
  26   14   15 ar
  27   15   16 ar
  28   15   28 1
  29   16   17 ar
  30   16   29 1
  31   17   30 1
  32   20   21 1
  33   21   31 1
  34   21   32 1
  35   21   33 1

#	End of record

