#	Name: ASD01910242
#	Creating user name:	WinNT
#	Creation time:	15. 06. 2019 19:55

#	Modifying user name:	WinNT
#	Modification time:	15. 06. 2019 19:55

#	Program:	/corina/corina34_cracker 3.40 0067  02.08.2006

@<TRIPOS>MOLECULE
ASD01910242
  45   48    0    0    0
SMALL
NO_CHARGES


@<TRIPOS>ATOM
   1 C1            -1.2172     3.1155     0.4048 C.2     
   2 C2             0.1280     3.7905     0.3285 C.3     
   3 C3             0.0152     5.0601    -0.5185 C.3     
   4 C4             1.3877     5.7288    -0.6238 C.3     
   5 C5             1.8681     6.1229     0.7764 C.3     
   6 N6             1.8411     4.9330     1.6379 N.am    
   7 C7             0.5941     4.1626     1.7396 C.3     
   8 C8             2.9392     4.5554     2.3219 C.2     
   9 C9             4.2168     5.2385     2.0930 C.2     
  10 O10            2.8708     3.6476     3.1295 O.2     
  11 N11           -1.5045     1.9051    -0.0048 N.2     
  12 C12           -2.8183     1.7327     0.2650 C.2     
  13 N13           -3.2473     2.8378     0.8173 N.2     
  14 O14           -2.3399     3.6375     0.9085 O.3     
  15 C15           -3.6228     0.5175    -0.0140 C.ar    
  16 C16           -4.9751     0.4826     0.3209 C.ar    
  17 C17           -5.7195    -0.6491     0.0593 C.ar    
  18 C18           -5.1244    -1.7501    -0.5355 C.ar    
  19 C19           -3.7800    -1.7196    -0.8701 C.ar    
  20 C20           -3.0296    -0.5901    -0.6168 C.ar    
  21 F21           -5.8568    -2.8565    -0.7896 F       
  22 C22            4.6021     5.8795     0.9347 C.2     
  23 C23            5.8863     6.3877     1.1540 C.2     
  24 C24            6.2548     6.0557     2.4144 C.2     
  25 N25            5.2472     5.3617     2.9974 N.pl3   
  26 C26            5.2566     4.8243     4.3603 C.3     
  27 H27            0.8500     3.1125    -0.1267 H       
  28 H28           -0.3400     4.8009    -1.5159 H       
  29 H29           -0.6888     5.7479    -0.0500 H       
  30 H30            2.0982     5.0328    -1.0697 H       
  31 H31            1.3113     6.6202    -1.2465 H       
  32 H32            2.8858     6.5090     0.7184 H       
  33 H33            1.2082     6.8868     1.1876 H       
  34 H34           -0.1697     4.7666     2.2293 H       
  35 H35            0.7712     3.2553     2.3170 H       
  36 H36           -5.4396     1.3401     0.7848 H       
  37 H37           -6.7675    -0.6771     0.3188 H       
  38 H38           -3.3201    -2.5799    -1.3335 H       
  39 H39           -1.9819    -0.5671    -0.8780 H       
  40 H40            4.0217     5.9714     0.0286 H       
  41 H41            6.4790     6.9458     0.4444 H       
  42 H42            7.1964     6.3066     2.8802 H       
  43 H43            4.7668     5.5291     5.0322 H       
  44 H44            4.7236     3.8737     4.3796 H       
  45 H45            6.2862     4.6702     4.6830 H       
@<TRIPOS>BOND
   1    1   11 2
   2    1    2 1
   3    1   14 1
   4    2    3 1
   5    2    7 1
   6    2   27 1
   7    3    4 1
   8    3   28 1
   9    3   29 1
  10    4    5 1
  11    4   30 1
  12    4   31 1
  13    5    6 1
  14    5   32 1
  15    5   33 1
  16    6    7 1
  17    6    8 am
  18    7   34 1
  19    7   35 1
  20    8    9 1
  21    8   10 2
  22    9   22 2
  23    9   25 1
  24   11   12 1
  25   12   13 2
  26   12   15 1
  27   13   14 1
  28   15   16 ar
  29   15   20 ar
  30   16   17 ar
  31   16   36 1
  32   17   18 ar
  33   17   37 1
  34   18   19 ar
  35   18   21 1
  36   19   20 ar
  37   19   38 1
  38   20   39 1
  39   22   23 1
  40   22   40 1
  41   23   24 2
  42   23   41 1
  43   24   25 1
  44   24   42 1
  45   25   26 1
  46   26   43 1
  47   26   44 1
  48   26   45 1

#	End of record

