#	Name: ASD03430097
#	Creating user name:	WinNT
#	Creation time:	15. 06. 2019 20:40

#	Modifying user name:	WinNT
#	Modification time:	15. 06. 2019 20:40

#	Program:	/corina/corina34_cracker 3.40 0067  02.08.2006

@<TRIPOS>MOLECULE
ASD03430097
  58   63    0    0    0
SMALL
NO_CHARGES


@<TRIPOS>ATOM
   1 C1            -0.1309     1.4370     0.1849 C.ar    
   2 C2            -0.1019     0.0517     0.1372 C.ar    
   3 C3             1.1027    -0.6152     0.0614 C.ar    
   4 C4             2.3026     0.0893     0.0418 C.ar    
   5 C5             2.2696     1.4794     0.0853 C.ar    
   6 C6             1.0611     2.1515     0.1575 C.ar    
   7 O7             3.3714    -0.7565    -0.0071 O.3     
   8 C8             1.4604    -2.0746    -0.0255 C.3     
   9 C9             2.9324    -2.0515    -0.4600 C.3     
  10 C10            0.3864    -3.8262     1.0203 C.ar    
  11 C11            1.2727    -2.7872     1.2806 C.ar    
  12 C12            0.6005    -2.8148    -1.0094 C.2     
  13 N13            0.0121    -3.8167    -0.3262 N.am    
  14 O14            0.4622    -2.5605    -2.1873 O.2     
  15 C15            1.7818    -2.5980     2.5601 C.ar    
  16 C16            1.4003    -3.4584     3.5925 C.ar    
  17 C17            0.5209    -4.4895     3.3325 C.ar    
  18 C18            0.0163    -4.6762     2.0609 C.ar    
  19 C19            2.7242    -1.4904     2.8274 C.2     
  20 O20           -1.3293     2.0797     0.2523 O.3     
  21 C21           -1.3024     3.4499     0.6670 C.3     
  22 C22           -0.1814     4.1621    -0.1021 C.3     
  23 O23            1.0566     3.5124     0.2048 O.3     
  24 N24            3.9035    -1.7396     3.4304 N.am    
  25 O25            2.4353    -0.3550     2.5033 O.2     
  26 C26           -0.9113    -4.7835    -0.9254 C.3     
  27 C27            4.8372    -0.6422     3.6953 C.3     
  28 C28            5.7426    -1.0154     4.8708 C.3     
  29 C29            6.7177     0.1307     5.1474 C.3     
  30 C30            7.5735     0.3833     3.9046 C.3     
  31 C31            6.6681     0.7565     2.7290 C.3     
  32 C32            5.6930    -0.3896     2.4524 C.3     
  33 H33           -1.0258    -0.5070     0.1599 H       
  34 H34            3.1934     2.0385     0.0634 H       
  35 H35            3.0173    -2.1317    -1.5437 H       
  36 H36            3.4940    -2.8449     0.0331 H       
  37 H37            1.7919    -3.3175     4.5891 H       
  38 H38            0.2255    -5.1558     4.1296 H       
  39 H39           -0.6711    -5.4874     1.8712 H       
  40 H40           -2.2593     3.9210     0.4422 H       
  41 H41           -1.1068     3.5061     1.7378 H       
  42 H42           -0.3731     4.0992    -1.1733 H       
  43 H43           -0.1335     5.2076     0.2024 H       
  44 H44            4.1340    -2.6456     3.6890 H       
  45 H45           -1.9313    -4.4067    -0.8498 H       
  46 H46           -0.6546    -4.9289    -1.9747 H       
  47 H47           -0.8350    -5.7341    -0.3976 H       
  48 H48            4.2771     0.2602     3.9402 H       
  49 H49            5.1328    -1.1953     5.7562 H       
  50 H50            6.3026    -1.9178     4.6258 H       
  51 H51            6.1576     1.0331     5.3924 H       
  52 H52            7.3627    -0.1352     5.9848 H       
  53 H53            8.2682     1.1998     4.1016 H       
  54 H54            8.1336    -0.5191     3.6596 H       
  55 H55            6.1080     1.6589     2.9740 H       
  56 H56            7.2779     0.9364     1.8436 H       
  57 H57            6.2531    -1.2920     2.2075 H       
  58 H58            5.0480    -0.1237     1.6150 H       
@<TRIPOS>BOND
   1    1    2 ar
   2    1    6 ar
   3    1   20 1
   4    2    3 ar
   5    2   33 1
   6    3    4 ar
   7    3    8 1
   8    4    5 ar
   9    4    7 1
  10    5    6 ar
  11    5   34 1
  12    6   23 1
  13    7    9 1
  14    8    9 1
  15    8   11 1
  16    8   12 1
  17    9   35 1
  18    9   36 1
  19   10   11 ar
  20   10   13 1
  21   10   18 ar
  22   11   15 ar
  23   12   13 am
  24   12   14 2
  25   13   26 1
  26   15   16 ar
  27   15   19 1
  28   16   17 ar
  29   16   37 1
  30   17   18 ar
  31   17   38 1
  32   18   39 1
  33   19   24 am
  34   19   25 2
  35   20   21 1
  36   21   22 1
  37   21   40 1
  38   21   41 1
  39   22   23 1
  40   22   42 1
  41   22   43 1
  42   24   27 1
  43   24   44 1
  44   26   45 1
  45   26   46 1
  46   26   47 1
  47   27   28 1
  48   27   32 1
  49   27   48 1
  50   28   29 1
  51   28   49 1
  52   28   50 1
  53   29   30 1
  54   29   51 1
  55   29   52 1
  56   30   31 1
  57   30   53 1
  58   30   54 1
  59   31   32 1
  60   31   55 1
  61   31   56 1
  62   32   57 1
  63   32   58 1

#	End of record

