#	Name: ASD01140353
#	Creating user name:	WinNT
#	Creation time:	15. 06. 2019 19:00

#	Modifying user name:	WinNT
#	Modification time:	15. 06. 2019 19:00

#	Program:	/corina/corina34_cracker 3.40 0067  02.08.2006

@<TRIPOS>MOLECULE
ASD01140353
  53   56    0    0    0
SMALL
NO_CHARGES


@<TRIPOS>ATOM
   1 C1             0.0964     1.5706     0.2395 C.ar    
   2 C2             0.0465     0.1743     0.2329 C.ar    
   3 C3             1.2224    -0.5614     0.1542 C.ar    
   4 C4             2.4620     0.0871     0.0815 C.ar    
   5 C5             2.4941     1.4838     0.0654 C.ar    
   6 C6             1.3112     2.2125     0.1560 C.ar    
   7 C7             3.6700    -0.7457     0.0574 C.2     
   8 N8             4.7289    -0.5801    -0.6551 N.2     
   9 C9             4.8507     0.5257    -1.6122 C.3     
  10 C10            4.7472     1.8147    -0.8387 C.2     
  11 N11            3.6913     2.1915    -0.0738 N.pl3   
  12 C12            4.0045     3.3861     0.4969 C.2     
  13 C13            5.6725     2.8086    -0.7634 C.2     
  14 N14            5.1802     3.7582     0.0758 N.2     
  15 C15            3.6710    -1.9174     0.9623 C.ar    
  16 C16            3.6449    -1.7346     2.3475 C.ar    
  17 C17            3.6922    -3.2090     0.4360 C.ar    
  18 C18            3.6925    -4.2970     1.2842 C.ar    
  19 C19            3.6714    -4.1107     2.6553 C.ar    
  20 C20            3.6455    -2.8341     3.1858 C.ar    
  21 C21           -1.2156    -0.4980     0.3077 C.1     
  22 C22           -2.2504    -1.0492     0.3690 C.1     
  23 F23            3.6195    -0.4873     2.8660 F       
  24 Si24          -3.9250    -1.9412     0.4682 Si      
  25 C25           -3.6501    -3.7836     0.4380 C.3     
  26 C26           -4.7880    -1.4680     2.0501 C.3     
  27 C27           -4.9792    -1.4467    -0.9861 C.3     
  28 C28            6.9689     2.8488    -1.4622 C.2     
  29 O29            7.2963     1.9305    -2.1902 O.2     
  30 S30            8.0452     4.2266    -1.2435 S.3     
  31 C31            9.4197     3.7238    -2.3084 C.3     
  32 H32           -0.8160     2.1447     0.3056 H       
  33 H33            1.1806    -1.6406     0.1493 H       
  34 H34            1.3472     3.2919     0.1610 H       
  35 H35            5.8159     0.4736    -2.1160 H       
  36 H36            4.0466     0.4695    -2.3459 H       
  37 H37            3.3807     3.9362     1.1859 H       
  38 H38            3.7079    -3.3570    -0.6337 H       
  39 H39            3.7089    -5.2971     0.8769 H       
  40 H40            3.6711    -4.9666     3.3140 H       
  41 H41            3.6291    -2.6955     4.2567 H       
  42 H42           -3.0333    -4.0729     1.2889 H       
  43 H43           -4.6108    -4.2953     0.4949 H       
  44 H44           -3.1452    -4.0604    -0.4875 H       
  45 H45           -4.9489    -0.3901     2.0677 H       
  46 H46           -5.7487    -1.9797     2.1070 H       
  47 H47           -4.1712    -1.7573     2.9010 H       
  48 H48           -4.4743    -1.7236    -1.9116 H       
  49 H49           -5.9399    -1.9585    -0.9292 H       
  50 H50           -5.1401    -0.3688    -0.9685 H       
  51 H51            9.8303     2.7797    -1.9502 H       
  52 H52            9.0611     3.5996    -3.3302 H       
  53 H53           10.1955     4.4892    -2.2861 H       
@<TRIPOS>BOND
   1    1    2 ar
   2    1    6 ar
   3    1   32 1
   4    2    3 ar
   5    2   21 1
   6    3    4 ar
   7    3   33 1
   8    4    5 ar
   9    4    7 1
  10    5    6 ar
  11    5   11 1
  12    6   34 1
  13    7    8 2
  14    7   15 1
  15    8    9 1
  16    9   10 1
  17    9   35 1
  18    9   36 1
  19   10   11 1
  20   10   13 2
  21   11   12 1
  22   12   14 2
  23   12   37 1
  24   13   14 1
  25   13   28 1
  26   15   16 ar
  27   15   17 ar
  28   16   20 ar
  29   16   23 1
  30   17   18 ar
  31   17   38 1
  32   18   19 ar
  33   18   39 1
  34   19   20 ar
  35   19   40 1
  36   20   41 1
  37   21   22 3
  38   22   24 1
  39   24   25 1
  40   24   26 1
  41   24   27 1
  42   25   42 1
  43   25   43 1
  44   25   44 1
  45   26   45 1
  46   26   46 1
  47   26   47 1
  48   27   48 1
  49   27   49 1
  50   27   50 1
  51   28   29 2
  52   28   30 1
  53   30   31 1
  54   31   51 1
  55   31   52 1
  56   31   53 1

#	End of record

