#	Name: ASD01001281
#	Creating user name:	WinNT
#	Creation time:	15. 06. 2019 18:55

#	Modifying user name:	WinNT
#	Modification time:	15. 06. 2019 18:55

#	Program:	/corina/corina34_cracker 3.40 0067  02.08.2006

@<TRIPOS>MOLECULE
ASD01001281
  25   27    0    0    0
SMALL
NO_CHARGES


@<TRIPOS>ATOM
   1 C1            -0.0167     1.3819     0.0096 C.ar    
   2 C2             0.0021    -0.0041     0.0020 C.ar    
   3 C3             1.1982    -0.6891    -0.0131 C.ar    
   4 C4             2.4012     0.0099    -0.0209 C.ar    
   5 C5             2.3801     1.4127    -0.0132 C.ar    
   6 C6             1.1647     2.0922     0.0022 C.ar    
   7 N7             3.7205    -0.4063    -0.0358 N.pl3   
   8 C8             4.5683     0.6870    -0.0381 C.ar    
   9 C9             3.7875     1.8522    -0.0243 C.ar    
  10 C10            5.9556     0.7970    -0.0508 C.ar    
  11 C11            6.5492     2.0407    -0.0498 C.ar    
  12 C12            5.7758     3.1914    -0.0358 C.ar    
  13 C13            4.4005     3.1030    -0.0239 C.ar    
  14 C14            8.0521     2.1510    -0.0636 C.3     
  15 F15            8.5045     2.1922    -1.3868 F       
  16 F16            8.4399     3.3208     0.5985 F       
  17 F17            8.6070     1.0424     0.5846 F       
  18 H18           -0.9603     1.9072     0.0170 H       
  19 H19           -0.9286    -0.5520     0.0084 H       
  20 H20            1.2016    -1.7691    -0.0186 H       
  21 H21            1.1477     3.1720     0.0078 H       
  22 H22            4.0097    -1.3321    -0.0432 H       
  23 H23            6.5674    -0.0930    -0.0611 H       
  24 H24            6.2527     4.1603    -0.0344 H       
  25 H25            3.8001     4.0007    -0.0129 H       
@<TRIPOS>BOND
   1    1    2 ar
   2    1    6 ar
   3    1   18 1
   4    2    3 ar
   5    2   19 1
   6    3    4 ar
   7    3   20 1
   8    4    5 ar
   9    4    7 1
  10    5    6 ar
  11    5    9 1
  12    6   21 1
  13    7    8 1
  14    7   22 1
  15    8    9 ar
  16    8   10 ar
  17    9   13 ar
  18   10   11 ar
  19   10   23 1
  20   11   12 ar
  21   11   14 1
  22   12   13 ar
  23   12   24 1
  24   13   25 1
  25   14   15 1
  26   14   16 1
  27   14   17 1

#	End of record

