#	Name: ASD01940290
#	Creating user name:	WinNT
#	Creation time:	15. 06. 2019 20:12

#	Modifying user name:	WinNT
#	Modification time:	15. 06. 2019 20:12

#	Program:	/corina/corina34_cracker 3.40 0067  02.08.2006

@<TRIPOS>MOLECULE
ASD01940290
  36   37    0    0    0
SMALL
NO_CHARGES


@<TRIPOS>ATOM
   1 C1            -0.1949     1.6557    -3.1637 C.3     
   2 S2            -0.3590     0.9472    -1.5018 S.o2    
   3 O3             0.2416     1.7983    -0.5353 O.2     
   4 O4            -1.6674     0.4276    -1.3083 O.2     
   5 N5             0.6132    -0.3931    -1.5262 N.am    
   6 C6             1.9926    -0.2561    -1.7524 C.ar    
   7 C7             2.5738    -0.8218    -2.8844 C.ar    
   8 C8             3.9385    -0.6832    -3.1041 C.ar    
   9 C9             4.7190     0.0166    -2.1983 C.ar    
  10 C10            4.1424     0.5791    -1.0722 C.ar    
  11 C11            2.7800     0.4496    -0.8495 C.ar    
  12 O12            2.2147     1.0084     0.2547 O.3     
  13 C13            3.0835     1.7191     1.1391 C.3     
  14 N14            1.7835    -1.5301    -3.8001 N.pl3   
  15 C15            2.3851    -2.3883    -4.7259 C.ar    
  16 C16            2.9508    -3.5865    -4.3009 C.ar    
  17 C17            3.5445    -4.4319    -5.2193 C.ar    
  18 C18            3.5762    -4.0871    -6.5591 C.ar    
  19 C19            3.0147    -2.8967    -6.9836 C.ar    
  20 C20            2.4144    -2.0495    -6.0718 C.ar    
  21 I21            4.4777    -5.3710    -7.9476 I       
  22 F22            2.9201    -3.9227    -2.9928 F       
  23 F23            6.0460     0.1501    -2.4141 F       
  24 F24            4.5049    -1.2315    -4.2013 F       
  25 H25            0.8596     1.8165    -3.3876 H       
  26 H26           -0.6211     0.9691    -3.8951 H       
  27 H27           -0.7247     2.6074    -3.2068 H       
  28 H28            0.2300    -1.2729    -1.3843 H       
  29 H29            4.7542     1.1236    -0.3682 H       
  30 H30            3.8524     1.0435     1.5138 H       
  31 H31            3.5539     2.5428     0.6022 H       
  32 H32            2.5069     2.1131     1.9760 H       
  33 H33            0.8192    -1.4249    -3.7917 H       
  34 H34            3.9843    -5.3621    -4.8909 H       
  35 H35            3.0417    -2.6308    -8.0300 H       
  36 H36            1.9720    -1.1225    -6.4055 H       
@<TRIPOS>BOND
   1    1    2 1
   2    1   25 1
   3    1   26 1
   4    1   27 1
   5    2    3 2
   6    2    4 2
   7    2    5 am
   8    5    6 1
   9    5   28 1
  10    6    7 ar
  11    6   11 ar
  12    7    8 ar
  13    7   14 1
  14    8    9 ar
  15    8   24 1
  16    9   10 ar
  17    9   23 1
  18   10   11 ar
  19   10   29 1
  20   11   12 1
  21   12   13 1
  22   13   30 1
  23   13   31 1
  24   13   32 1
  25   14   15 1
  26   14   33 1
  27   15   16 ar
  28   15   20 ar
  29   16   17 ar
  30   16   22 1
  31   17   18 ar
  32   17   34 1
  33   18   19 ar
  34   18   21 1
  35   19   20 ar
  36   19   35 1
  37   20   36 1

#	End of record

