#	Name: ASD05250085
#	Creating user name:	WinNT
#	Creation time:	15. 06. 2019 20:58

#	Modifying user name:	WinNT
#	Modification time:	15. 06. 2019 20:58

#	Program:	/corina/corina34_cracker 3.40 0067  02.08.2006

@<TRIPOS>MOLECULE
ASD05250085
  36   37    0    0    0
SMALL
NO_CHARGES


@<TRIPOS>ATOM
   1 C1            -0.0167     1.3834     0.0096 C.ar    
   2 C2             0.0021    -0.0041     0.0020 C.ar    
   3 C3            -1.1874    -0.7187     0.0100 C.ar    
   4 C4            -2.3996    -0.0497     0.0252 C.ar    
   5 C5            -2.4238     1.3468     0.0329 C.ar    
   6 C6            -1.2238     2.0616     0.0306 C.ar    
   7 C7            -3.7116     2.0640     0.0486 C.2     
   8 C8            -3.7323     3.4061     0.0560 C.2     
   9 C9            -5.0200     4.1232     0.0717 C.ar    
  10 C10           -5.0455     5.5203     0.0794 C.ar    
  11 C11           -6.2542     6.1844     0.0936 C.ar    
  12 C12           -7.4397     5.4707     0.1002 C.ar    
  13 C13           -7.4222     4.0870     0.0930 C.ar    
  14 C14           -6.2212     3.4092     0.0730 C.ar    
  15 O15            1.1515     2.0778     0.0022 O.3     
  16 O16           -1.1625    -2.0775     0.0025 O.3     
  17 C17            2.3596     1.3148    -0.0134 C.3     
  18 C18            0.1224    -2.7027    -0.0137 C.3     
  19 N19           -8.7329     6.1908     0.1154 N.pl3   
  20 O20           -8.7517     7.4087     0.1222 O.2     
  21 O21           -9.7781     5.5655     0.1213 O.2     
  22 H22            0.9456    -0.5295    -0.0105 H       
  23 H23           -3.3248    -0.6068     0.0306 H       
  24 H24           -1.2374     3.1415     0.0369 H       
  25 H25           -4.6384     1.5095     0.0541 H       
  26 H26           -2.8055     3.9606     0.0505 H       
  27 H27           -4.1210     6.0786     0.0747 H       
  28 H28           -6.2755     7.2642     0.1000 H       
  29 H29           -8.3514     3.5365     0.0986 H       
  30 H30           -6.2090     2.3293     0.0671 H       
  31 H31            3.2156     1.9896    -0.0180 H       
  32 H32            2.4009     0.6815     0.8728 H       
  33 H33            2.3839     0.6911    -0.9070 H       
  34 H34            0.6651    -2.3949    -0.9074 H       
  35 H35            0.6827    -2.4045     0.8724 H       
  36 H36           -0.0006    -3.7858    -0.0182 H       
@<TRIPOS>BOND
   1    1    2 ar
   2    1   15 1
   3    1    6 ar
   4    2    3 ar
   5    2   22 1
   6    3    4 ar
   7    3   16 1
   8    4    5 ar
   9    4   23 1
  10    5    6 ar
  11    5    7 1
  12    6   24 1
  13    7    8 2
  14    7   25 1
  15    8    9 1
  16    8   26 1
  17    9   10 ar
  18    9   14 ar
  19   10   11 ar
  20   10   27 1
  21   11   12 ar
  22   11   28 1
  23   12   13 ar
  24   12   19 1
  25   13   14 ar
  26   13   29 1
  27   14   30 1
  28   15   17 1
  29   16   18 1
  30   17   31 1
  31   17   32 1
  32   17   33 1
  33   18   34 1
  34   18   35 1
  35   18   36 1
  36   19   20 2
  37   19   21 2

#	End of record

