#	Name: ASD01230126
#	Creating user name:	WinNT
#	Creation time:	15. 06. 2019 19:11

#	Modifying user name:	WinNT
#	Modification time:	15. 06. 2019 19:11

#	Program:	/corina/corina34_cracker 3.40 0067  02.08.2006

@<TRIPOS>MOLECULE
ASD01230126
  82   85    0    0    0
SMALL
NO_CHARGES


@<TRIPOS>ATOM
   1 P1            -0.0868     1.5162    -0.0067 P.3     
   2 O2            -0.0963     0.0365     0.0218 O.2     
   3 O3             1.4332     2.0418    -0.0807 O.3     
   4 O4            -0.8970     2.0333    -1.2983 O.3     
   5 N5            -0.8180     2.1088     1.3886 N.3     
   6 N6            -2.5766     5.2325     1.5152 N.am    
   7 C7            -1.9752     4.1914     0.9384 C.2     
   8 C8            -0.7098     3.5721     1.4587 C.3     
   9 C9            -0.4818     3.9960     2.9117 C.3     
  10 C10           -0.6467     5.5178     3.0042 C.3     
  11 C11           -2.1118     5.8683     2.7416 C.3     
  12 O12           -2.4772     3.7190    -0.0595 O.2     
  13 C13           -3.7762     5.7749     0.8726 C.3     
  14 C14            2.2791     1.4093     0.7744 C.ar    
  15 C15            2.9535     0.2674     0.3670 C.ar    
  16 C16            3.8127    -0.3737     1.2381 C.ar    
  17 C17            4.0010     0.1217     2.5152 C.ar    
  18 C18            3.3297     1.2593     2.9238 C.ar    
  19 C19            2.4740     1.9076     2.0544 C.ar    
  20 C20           -2.1528     1.4829    -1.7010 C.3     
  21 O21           -1.8620     2.1004    -4.0461 O.3     
  22 C22           -2.7026     2.2801    -2.8855 C.3     
  23 C23           -4.0830     1.7308    -3.3091 C.3     
  24 C24           -4.0759     1.8453    -4.8499 C.3     
  25 C25           -2.6922     2.4503    -5.1750 C.3     
  26 F26           -4.2085     0.5820    -5.4360 F       
  27 F27           -5.0974     2.6976    -5.2828 F       
  28 C28           -1.9125     2.6495    -7.4687 C.2     
  29 N29           -1.4186     2.1361    -8.6107 N.am    
  30 C30           -1.1581     0.8166    -8.7058 C.2     
  31 C31           -1.4085    -0.0228    -7.5936 C.2     
  32 C32           -1.9037     0.5187    -6.4602 C.2     
  33 N33           -2.1548     1.8626    -6.4047 N.am    
  34 O34           -0.7120     0.3511    -9.7389 O.2     
  35 O35           -2.1381     3.8421    -7.3960 O.2     
  36 O36           -5.1310     2.5271    -2.7526 O.3     
  37 Si37          -6.5059     1.7011    -2.4565 Si      
  38 C38           -7.1507     0.9779    -4.0477 C.3     
  39 C39           -6.1571     0.3280    -1.2466 C.3     
  40 C40           -7.7802     2.8541    -1.7370 C.3     
  41 C41           -8.0666     3.9817    -2.7306 C.3     
  42 C42           -9.0699     2.0793    -1.4593 C.3     
  43 C43           -7.2506     3.4480    -0.4302 C.3     
  44 H44           -1.7814     1.8143     1.4449 H       
  45 H45            0.1319     3.9026     0.8501 H       
  46 H46           -1.2133     3.5078     3.5556 H       
  47 H47            0.5251     3.7165     3.2218 H       
  48 H48           -0.3625     5.8565     4.0005 H       
  49 H49           -0.0158     6.0001     2.2576 H       
  50 H50           -2.2122     6.9496     2.6472 H       
  51 H51           -2.7200     5.5248     3.5784 H       
  52 H52           -3.9955     5.2030    -0.0290 H       
  53 H53           -4.6192     5.7065     1.5603 H       
  54 H54           -3.6065     6.8187     0.6085 H       
  55 H55            2.8065    -0.1201    -0.6303 H       
  56 H56            4.3377    -1.2629     0.9215 H       
  57 H57            4.6732    -0.3810     3.1948 H       
  58 H58            3.4778     1.6439     3.9221 H       
  59 H59            1.9536     2.7989     2.3724 H       
  60 H60           -2.0157     0.4424    -1.9956 H       
  61 H61           -2.8559     1.5355    -0.8698 H       
  62 H62           -2.7769     3.3373    -2.6307 H       
  63 H63           -4.1898     0.6898    -3.0040 H       
  64 H64           -2.7648     3.5336    -5.2713 H       
  65 H65           -1.2497     2.7177    -9.3685 H       
  66 H66           -1.2064    -1.0822    -7.6510 H       
  67 H67           -2.1010    -0.1060    -5.6016 H       
  68 H68           -6.4052     0.3034    -4.4687 H       
  69 H69           -8.0696     0.4260    -3.8498 H       
  70 H70           -7.3547     1.7813    -4.7556 H       
  71 H71           -5.7799     0.7512    -0.3157 H       
  72 H72           -7.0760    -0.2239    -1.0488 H       
  73 H73           -5.4116    -0.3465    -1.6676 H       
  74 H74           -8.4438     3.5586    -3.6616 H       
  75 H75           -8.8121     4.6563    -2.3096 H       
  76 H76           -7.1477     4.5337    -2.9285 H       
  77 H77           -8.8659     1.2759    -0.7514 H       
  78 H78           -9.8155     2.7538    -1.0383 H       
  79 H79           -9.4472     1.6561    -2.3902 H       
  80 H80           -6.3317     4.0000    -0.6281 H       
  81 H81           -7.9961     4.1225    -0.0093 H       
  82 H82           -7.0465     2.6446     0.2776 H       
@<TRIPOS>BOND
   1    1    2 2
   2    1    3 1
   3    1    4 1
   4    1    5 1
   5    3   14 1
   6    4   20 1
   7    5    8 1
   8    5   44 1
   9    6    7 am
  10    6   11 1
  11    6   13 1
  12    7    8 1
  13    7   12 2
  14    8    9 1
  15    8   45 1
  16    9   10 1
  17    9   46 1
  18    9   47 1
  19   10   11 1
  20   10   48 1
  21   10   49 1
  22   11   50 1
  23   11   51 1
  24   13   52 1
  25   13   53 1
  26   13   54 1
  27   14   15 ar
  28   14   19 ar
  29   15   16 ar
  30   15   55 1
  31   16   17 ar
  32   16   56 1
  33   17   18 ar
  34   17   57 1
  35   18   19 ar
  36   18   58 1
  37   19   59 1
  38   20   22 1
  39   20   60 1
  40   20   61 1
  41   21   22 1
  42   21   25 1
  43   22   23 1
  44   22   62 1
  45   23   24 1
  46   23   36 1
  47   23   63 1
  48   24   25 1
  49   24   26 1
  50   24   27 1
  51   25   33 1
  52   25   64 1
  53   28   29 am
  54   28   33 am
  55   28   35 2
  56   29   30 am
  57   29   65 1
  58   30   31 1
  59   30   34 2
  60   31   32 2
  61   31   66 1
  62   32   33 1
  63   32   67 1
  64   36   37 1
  65   37   38 1
  66   37   39 1
  67   37   40 1
  68   38   68 1
  69   38   69 1
  70   38   70 1
  71   39   71 1
  72   39   72 1
  73   39   73 1
  74   40   41 1
  75   40   43 1
  76   40   42 1
  77   41   74 1
  78   41   75 1
  79   41   76 1
  80   42   77 1
  81   42   78 1
  82   42   79 1
  83   43   80 1
  84   43   81 1
  85   43   82 1

#	End of record

