#	Name: ASD03320244
#	Creating user name:	WinNT
#	Creation time:	15. 06. 2019 20:36

#	Modifying user name:	WinNT
#	Modification time:	15. 06. 2019 20:36

#	Program:	/corina/corina34_cracker 3.40 0067  02.08.2006

@<TRIPOS>MOLECULE
ASD03320244
  26   27    0    0    0
SMALL
NO_CHARGES


@<TRIPOS>ATOM
   1 C1             0.0007     1.3675    -0.0248 C.ar    
   2 C2             0.0307    -0.0129    -0.0491 C.ar    
   3 C3             1.2466    -0.6804    -0.0631 C.ar    
   4 C4             2.4332     0.0379    -0.0532 C.ar    
   5 C5             2.4049     1.4184    -0.0294 C.ar    
   6 C6             1.1881     2.0874    -0.0149 C.ar    
   7 O7             1.2753    -2.0398    -0.0861 O.3     
   8 C8             2.5620    -2.6614    -0.0994 C.3     
   9 N9             1.1585     3.4870     0.0097 N.pl3   
  10 C10            2.1393     4.1890     0.6927 C.ar    
  11 N11            4.0553     5.5252     2.0297 N.ar    
  12 C12            3.1894     6.2362     1.3208 C.ar    
  13 C13            2.1932     5.5829     0.6225 C.ar    
  14 N14            3.0408     3.5466     1.4297 N.ar    
  15 C15            3.9745     4.2110     2.0801 C.ar    
  16 F16            3.2714    -2.2897     1.0477 F       
  17 F17            2.4081    -4.0517    -0.1225 F       
  18 F18            3.2663    -2.2512    -1.2365 F       
  19 H19           -0.9461     1.8871    -0.0181 H       
  20 H20           -0.8927    -0.5730    -0.0568 H       
  21 H21            3.3795    -0.4826    -0.0637 H       
  22 H22            3.3289     1.9775    -0.0213 H       
  23 H23            0.4517     3.9653    -0.4512 H       
  24 H24            3.2648     7.3130     1.2865 H       
  25 H25            1.4741     6.1359     0.0365 H       
  26 H26            4.6966     3.6628     2.6670 H       
@<TRIPOS>BOND
   1    1    2 ar
   2    1    6 ar
   3    1   19 1
   4    2    3 ar
   5    2   20 1
   6    3    4 ar
   7    3    7 1
   8    4    5 ar
   9    4   21 1
  10    5    6 ar
  11    5   22 1
  12    6    9 1
  13    7    8 1
  14    8   16 1
  15    8   17 1
  16    8   18 1
  17    9   10 1
  18    9   23 1
  19   10   14 ar
  20   10   13 ar
  21   11   12 ar
  22   11   15 ar
  23   12   13 ar
  24   12   24 1
  25   13   25 1
  26   14   15 ar
  27   15   26 1

#	End of record

