#	Name: ASD02039487
#	Creating user name:	WinNT
#	Creation time:	15. 06. 2019 20:18

#	Modifying user name:	WinNT
#	Modification time:	15. 06. 2019 20:18

#	Program:	/corina/corina34_cracker 3.40 0067  02.08.2006

@<TRIPOS>MOLECULE
ASD02039487
  52   52    0    0    0
SMALL
NO_CHARGES


@<TRIPOS>ATOM
   1 C1            -1.6651     0.9011     0.0926 C.2     
   2 N2            -0.7818    -0.0550     0.1031 N.2     
   3 C3            -1.4228    -1.2462    -0.0123 C.2     
   4 C4            -2.7595    -0.9870    -0.0962 C.2     
   5 N5            -2.9040     0.3574    -0.0299 N.pl3   
   6 C6            -0.7901    -2.5763    -0.0417 C.2     
   7 O7            -1.4793    -3.5782    -0.0221 O.2     
   8 N8             0.5526    -2.6829    -0.0903 N.am    
   9 C9             2.1875    -1.2428     1.0208 C.3     
  10 C10            1.3772    -1.4832    -0.2546 C.3     
  11 C11            2.3305    -1.6774    -1.4354 C.3     
  12 C12           -4.1694     1.0938    -0.0812 C.3     
  13 C13            1.1874    -3.9985     0.0210 C.3     
  14 C14            1.3546    -4.3541     1.4759 C.ar    
  15 C15            0.3182    -4.9584     2.1617 C.ar    
  16 C16            0.4719    -5.2863     3.5009 C.ar    
  17 C17            1.6695    -5.0055     4.1492 C.ar    
  18 C18            2.7026    -4.4005     3.4569 C.ar    
  19 C19            2.5464    -4.0804     2.1207 C.ar    
  20 C20           -1.8721    -5.4863     4.2388 C.2     
  21 N21           -2.5496    -6.3110     4.9902 N.2     
  22 C22           -1.7298    -7.2666     5.4523 C.2     
  23 C23           -0.4945    -7.0294     4.9714 C.2     
  24 N24           -0.5790    -5.8996     4.1998 N.pl3   
  25 C25           -2.1230    -8.4083     6.3539 C.3     
  26 F26            1.8234    -5.3226     5.4534 F       
  27 H27           -1.4484     1.9560     0.1730 H       
  28 H28           -3.5510    -1.7150    -0.1968 H       
  29 H29            2.9240    -2.0376     1.1386 H       
  30 H30            2.6976    -0.2820     0.9515 H       
  31 H31            1.5180    -1.2375     1.8810 H       
  32 H32            0.7344    -0.6236    -0.4441 H       
  33 H33            1.7583    -1.9420    -2.3246 H       
  34 H34            2.8770    -0.7519    -1.6172 H       
  35 H35            3.0354    -2.4765    -1.2058 H       
  36 H36           -4.4079     1.3346    -1.1172 H       
  37 H37           -4.9646     0.4797     0.3414 H       
  38 H38           -4.0772     2.0151     0.4940 H       
  39 H39            0.5617    -4.7463    -0.4662 H       
  40 H40            2.1646    -3.9724    -0.4612 H       
  41 H41           -0.6109    -5.1750     1.6556 H       
  42 H42            3.6333    -4.1814     3.9591 H       
  43 H43            3.3558    -3.6118     1.5807 H       
  44 H44           -2.2735    -4.6226     3.7296 H       
  45 H45            0.3926    -7.6164     5.1581 H       
  46 H46           -2.4269    -9.2618     5.7479 H       
  47 H47           -1.2734    -8.6890     6.9764 H       
  48 H48           -2.9530    -8.1001     6.9896 H       
  49 Cl49           8.6333     7.0151    11.9896 Cl      
  50 H50            8.6333     8.3851    11.9896 H       
  51 Cl51          13.6333    13.3851    16.9896 Cl      
  52 H52           13.6333    14.7551    16.9896 H       
@<TRIPOS>BOND
   1    1    2 2
   2    1    5 1
   3    1   27 1
   4    2    3 1
   5    3    4 2
   6    3    6 1
   7    4    5 1
   8    4   28 1
   9    5   12 1
  10    6    7 2
  11    6    8 am
  12    8   10 1
  13    8   13 1
  14    9   10 1
  15    9   29 1
  16    9   30 1
  17    9   31 1
  18   10   11 1
  19   10   32 1
  20   11   33 1
  21   11   34 1
  22   11   35 1
  23   12   36 1
  24   12   37 1
  25   12   38 1
  26   13   14 1
  27   13   39 1
  28   13   40 1
  29   14   15 ar
  30   14   19 ar
  31   15   16 ar
  32   15   41 1
  33   16   17 ar
  34   16   24 1
  35   17   18 ar
  36   17   26 1
  37   18   19 ar
  38   18   42 1
  39   19   43 1
  40   20   21 2
  41   20   24 1
  42   20   44 1
  43   21   22 1
  44   22   23 2
  45   22   25 1
  46   23   24 1
  47   23   45 1
  48   25   46 1
  49   25   47 1
  50   25   48 1
  51   49   50 1
  52   51   52 1

#	End of record

