#	Name: ASD01913113
#	Creating user name:	WinNT
#	Creation time:	15. 06. 2019 20:00

#	Modifying user name:	WinNT
#	Modification time:	15. 06. 2019 20:00

#	Program:	/corina/corina34_cracker 3.40 0067  02.08.2006

@<TRIPOS>MOLECULE
ASD01913113
  44   47    0    0    0
SMALL
NO_CHARGES


@<TRIPOS>ATOM
   1 C1             0.5762     1.1338    -2.0183 C.ar    
   2 C2             0.5883    -0.2204    -1.7341 C.ar    
   3 C3             1.2737    -0.6695    -0.6083 C.ar    
   4 N4             1.9057     0.1850     0.1806 N.ar    
   5 C5             1.9108     1.4816    -0.0664 C.ar    
   6 C6             1.2520     1.9960    -1.1646 C.ar    
   7 Cl7           -0.2401    -1.3438    -2.7664 Cl      
   8 N8             1.2941    -2.0276    -0.3100 N.3     
   9 C9             2.6567    -2.5677    -0.4076 C.3     
  10 C10            0.7127    -2.2845     1.0144 C.3     
  11 C11            0.5874    -3.7966     1.2290 C.3     
  12 N12            1.9031    -4.4119     0.9975 N.am    
  13 C13            2.6111    -4.0914    -0.2512 C.3     
  14 C14            2.4453    -5.2477     1.9052 C.2     
  15 O15            3.4846    -5.8263     1.6542 O.2     
  16 N16            1.8353    -5.4420     3.0912 N.am    
  17 C17            2.4439    -6.2176     4.0642 C.2     
  18 S18            1.7644    -6.5533     5.6505 S.3     
  19 C19            3.1756    -7.5237     6.0647 C.ar    
  20 C20            4.0499    -7.5190     4.9739 C.ar    
  21 N21            3.5852    -6.7997     3.9330 N.2     
  22 C22            3.4984    -8.2248     7.2241 C.ar    
  23 C23            4.6846    -8.9209     7.3052 C.ar    
  24 C24            5.5614    -8.9243     6.2291 C.ar    
  25 C25            5.2591    -8.2387     5.0801 C.ar    
  26 Br26           5.1182    -9.8706     8.8819 Br      
  27 C27            4.0363    -4.6447    -0.1905 C.3     
  28 H28            0.0568     1.5112    -2.8867 H       
  29 H29            2.4371     2.1489     0.6000 H       
  30 H30            1.2622     3.0585    -1.3584 H       
  31 H31            3.0796    -2.3143    -1.3797 H       
  32 H32            3.2751    -2.1394     0.3813 H       
  33 H33            1.3581    -1.8602     1.7834 H       
  34 H34           -0.2743    -1.8257     1.0735 H       
  35 H35            0.2648    -3.9959     2.2509 H       
  36 H36           -0.1377    -4.2073     0.5265 H       
  37 H37            2.0806    -4.5305    -1.0961 H       
  38 H38            0.9701    -5.0387     3.2634 H       
  39 H39            2.8171    -8.2226     8.0621 H       
  40 H40            6.4901    -9.4713     6.2973 H       
  41 H41            5.9510    -8.2503     4.2509 H       
  42 H42            4.0044    -5.7340    -0.2117 H       
  43 H43            4.6040    -4.2811    -1.0470 H       
  44 H44            4.5159    -4.3131     0.7305 H       
@<TRIPOS>BOND
   1    1    2 ar
   2    1    6 ar
   3    1   28 1
   4    2    3 ar
   5    2    7 1
   6    3    4 ar
   7    3    8 1
   8    4    5 ar
   9    5    6 ar
  10    5   29 1
  11    6   30 1
  12    8    9 1
  13    8   10 1
  14    9   13 1
  15    9   31 1
  16    9   32 1
  17   10   11 1
  18   10   33 1
  19   10   34 1
  20   11   12 1
  21   11   35 1
  22   11   36 1
  23   12   13 1
  24   12   14 am
  25   13   27 1
  26   13   37 1
  27   14   15 2
  28   14   16 am
  29   16   17 1
  30   16   38 1
  31   17   18 1
  32   17   21 2
  33   18   19 1
  34   19   20 ar
  35   19   22 ar
  36   20   21 1
  37   20   25 ar
  38   22   23 ar
  39   22   39 1
  40   23   24 ar
  41   23   26 1
  42   24   25 ar
  43   24   40 1
  44   25   41 1
  45   27   42 1
  46   27   43 1
  47   27   44 1

#	End of record

