#	Name: ASD01916103
#	Creating user name:	WinNT
#	Creation time:	15. 06. 2019 20:06

#	Modifying user name:	WinNT
#	Modification time:	15. 06. 2019 20:06

#	Program:	/corina/corina34_cracker 3.40 0067  02.08.2006

@<TRIPOS>MOLECULE
ASD01916103
  39   41    0    0    0
SMALL
NO_CHARGES


@<TRIPOS>ATOM
   1 C1            -0.0170     1.3990     0.0096 C.ar    
   2 C2             0.0021    -0.0041     0.0081 C.ar    
   3 C3            -1.2033    -0.6760     0.0161 C.ar    
   4 C4            -2.3890     0.0534     0.0252 C.ar    
   5 N5            -3.6086    -0.6195     0.0333 N.am    
   6 C6             1.2068     2.1426     0.0016 C.1     
   7 C7             2.2101     2.7523    -0.0050 C.1     
   8 C8             3.4339     3.4958    -0.0130 C.ar    
   9 C9             3.4059     4.8931    -0.0114 C.ar    
  10 C10            4.5876     5.6034    -0.0192 C.ar    
  11 N11           -2.3743     1.3775     0.0269 N.ar    
  12 C12           -1.2474     2.0592     0.0131 C.ar    
  13 C13            4.6611     2.8272    -0.0166 C.ar    
  14 C14            5.8016     4.9345    -0.0285 C.ar    
  15 N15           -3.7218    -1.9745    -0.0661 N.3     
  16 C16           -5.0681    -2.3547     0.4211 C.3     
  17 C17           -5.8804    -1.0650     0.1513 C.3     
  18 C18           -4.7984    -0.0004     0.1459 C.2     
  19 C19           -5.6278    -3.5315    -0.3807 C.3     
  20 C20            5.8359     3.5488    -0.0243 C.ar    
  21 O21           -4.9751     1.1970     0.2219 O.2     
  22 C22           -5.0374    -2.6793     1.9159 C.3     
  23 F23            6.9561     5.6360    -0.0366 F       
  24 H24            0.9370    -0.5448     0.0005 H       
  25 H25           -1.2266    -1.7557     0.0148 H       
  26 H26            2.4606     5.4154    -0.0045 H       
  27 H27            4.5673     6.6832    -0.0183 H       
  28 H28           -1.2752     3.1388     0.0153 H       
  29 H29            4.6892     1.7476    -0.0130 H       
  30 H30           -3.5818    -2.2802    -1.0174 H       
  31 H31           -6.3829    -1.1178    -0.8145 H       
  32 H32           -6.5962    -0.8825     0.9529 H       
  33 H33           -4.9771    -4.3972    -0.2577 H       
  34 H34           -6.6274    -3.7741    -0.0202 H       
  35 H35           -5.6777    -3.2614    -1.4356 H       
  36 H36            6.7850     3.0333    -0.0268 H       
  37 H37           -4.6741    -1.8128     2.4685 H       
  38 H38           -6.0428    -2.9303     2.2539 H       
  39 H39           -4.3735    -3.5260     2.0903 H       
@<TRIPOS>BOND
   1    1    2 ar
   2    1    6 1
   3    1   12 ar
   4    2    3 ar
   5    2   24 1
   6    3    4 ar
   7    3   25 1
   8    4   11 ar
   9    4    5 1
  10    5   15 1
  11    5   18 am
  12    6    7 3
  13    7    8 1
  14    8    9 ar
  15    8   13 ar
  16    9   10 ar
  17    9   26 1
  18   10   14 ar
  19   10   27 1
  20   11   12 ar
  21   12   28 1
  22   13   20 ar
  23   13   29 1
  24   14   23 1
  25   14   20 ar
  26   15   16 1
  27   15   30 1
  28   16   17 1
  29   16   19 1
  30   16   22 1
  31   17   18 1
  32   17   31 1
  33   17   32 1
  34   18   21 2
  35   19   33 1
  36   19   34 1
  37   19   35 1
  38   20   36 1
  39   22   37 1
  40   22   38 1
  41   22   39 1

#	End of record

