#	Name: ASD01900442
#	Creating user name:	WinNT
#	Creation time:	15. 06. 2019 19:51

#	Modifying user name:	WinNT
#	Modification time:	15. 06. 2019 19:51

#	Program:	/corina/corina34_cracker 3.40 0067  02.08.2006

@<TRIPOS>MOLECULE
ASD01900442
  67   72    0    0    0
SMALL
NO_CHARGES


@<TRIPOS>ATOM
   1 C1             0.1950     0.8148    -0.3960 C.ar    
   2 C2             0.3754    -0.5397    -0.4285 C.ar    
   3 C3             1.6600    -1.0827    -0.5072 C.ar    
   4 C4             2.7740    -0.2469    -0.5463 C.ar    
   5 C5             2.5975     1.1238    -0.5094 C.ar    
   6 C6             1.2996     1.6636    -0.4436 C.ar    
   7 N7             3.6767     2.0004    -0.5282 N.pl3   
   8 C8             3.4921     3.3393    -1.0997 C.3     
   9 N9             2.2213     3.9102    -0.6524 N.am    
  10 C10            1.1488     3.1287    -0.4161 C.2     
  11 C11            2.1175     5.2941    -0.4654 C.ar    
  12 C12            1.4669     6.0760    -1.4107 C.ar    
  13 C13            1.3645     7.4405    -1.2254 C.ar    
  14 C14            1.9116     8.0303    -0.0952 C.ar    
  15 C15            2.5622     7.2499     0.8494 C.ar    
  16 C16            2.6603     5.8845     0.6683 C.ar    
  17 C17            2.3965     9.9141     1.2727 C.3     
  18 O18            1.8104     9.3740     0.0866 O.3     
  19 O19            0.0652     3.6292    -0.1823 O.2     
  20 C20            1.8388    -2.5546    -0.5490 C.ar    
  21 C21            0.7363    -3.4132    -0.5106 C.ar    
  22 C22            0.9477    -4.7763    -0.5516 C.ar    
  23 N23            2.1686    -5.2702    -0.6255 N.ar    
  24 C24            3.2354    -4.4953    -0.6638 C.ar    
  25 C25            3.1140    -3.1209    -0.6336 C.ar    
  26 C26            4.6441     4.2420    -0.6482 C.3     
  27 C27            3.4995     3.2435    -2.6278 C.3     
  28 C28            3.3808     4.6487    -3.2223 C.3     
  29 N29            4.5043     5.4741    -2.7608 N.3     
  30 C30            4.4923     5.6184    -1.2995 C.3     
  31 C31            4.4983     6.7872    -3.4195 C.3     
  32 C32            5.6101     7.6357    -2.8584 C.ar    
  33 C33            6.8962     7.5001    -3.3473 C.ar    
  34 C34            7.9177     8.2769    -2.8340 C.ar    
  35 C35            7.6536     9.1921    -1.8298 C.ar    
  36 C36            6.3637     9.3284    -1.3399 C.ar    
  37 C37            5.3420     8.5527    -1.8596 C.ar    
  38 F38            8.6516     9.9514    -1.3273 F       
  39 F39            6.1035    10.2207    -0.3594 F       
  40 H40           -0.8017     1.2266    -0.3381 H       
  41 H41           -0.4820    -1.1954    -0.3926 H       
  42 H42            3.7675    -0.6664    -0.6045 H       
  43 H43            4.5369     1.7316    -0.1693 H       
  44 H44            1.0412     5.6170    -2.2908 H       
  45 H45            0.8588     8.0488    -1.9607 H       
  46 H46            2.9881     7.7099     1.7288 H       
  47 H47            3.1626     5.2765     1.4061 H       
  48 H48            3.4646     9.6969     1.2816 H       
  49 H49            2.2449    10.9933     1.2939 H       
  50 H50            1.9269     9.4641     2.1474 H       
  51 H51           -0.2660    -3.0157    -0.4494 H       
  52 H52            0.1023    -5.4477    -0.5224 H       
  53 H53            4.2167    -4.9423    -0.7243 H       
  54 H54            3.9914    -2.4923    -0.6700 H       
  55 H55            4.6199     4.3478     0.4363 H       
  56 H56            5.5933     3.7992    -0.9502 H       
  57 H57            4.4315     2.7856    -2.9593 H       
  58 H58            2.6571     2.6360    -2.9585 H       
  59 H59            3.3996     4.5855    -4.3103 H       
  60 H60            2.4423     5.1007    -2.9012 H       
  61 H61            3.5491     6.0662    -0.9865 H       
  62 H62            5.3183     6.2592    -0.9910 H       
  63 H63            4.6464     6.6566    -4.4914 H       
  64 H64            3.5415     7.2783    -3.2420 H       
  65 H65            7.1030     6.7862    -4.1308 H       
  66 H66            8.9221     8.1695    -3.2162 H       
  67 H67            4.3361     8.6608    -1.4817 H       
@<TRIPOS>BOND
   1    1    2 ar
   2    1    6 ar
   3    1   40 1
   4    2    3 ar
   5    2   41 1
   6    3    4 ar
   7    3   20 1
   8    4    5 ar
   9    4   42 1
  10    5    7 1
  11    5    6 ar
  12    6   10 1
  13    7    8 1
  14    7   43 1
  15    8    9 1
  16    8   27 1
  17    8   26 1
  18    9   10 am
  19    9   11 1
  20   10   19 2
  21   11   12 ar
  22   11   16 ar
  23   12   13 ar
  24   12   44 1
  25   13   14 ar
  26   13   45 1
  27   14   15 ar
  28   14   18 1
  29   15   16 ar
  30   15   46 1
  31   16   47 1
  32   17   18 1
  33   17   48 1
  34   17   49 1
  35   17   50 1
  36   20   21 ar
  37   20   25 ar
  38   21   22 ar
  39   21   51 1
  40   22   23 ar
  41   22   52 1
  42   23   24 ar
  43   24   25 ar
  44   24   53 1
  45   25   54 1
  46   26   30 1
  47   26   55 1
  48   26   56 1
  49   27   28 1
  50   27   57 1
  51   27   58 1
  52   28   29 1
  53   28   59 1
  54   28   60 1
  55   29   30 1
  56   29   31 1
  57   30   61 1
  58   30   62 1
  59   31   32 1
  60   31   63 1
  61   31   64 1
  62   32   33 ar
  63   32   37 ar
  64   33   34 ar
  65   33   65 1
  66   34   35 ar
  67   34   66 1
  68   35   36 ar
  69   35   38 1
  70   36   37 ar
  71   36   39 1
  72   37   67 1

#	End of record

