#	Name: ASD01900384
#	Creating user name:	WinNT
#	Creation time:	15. 06. 2019 19:51

#	Modifying user name:	WinNT
#	Modification time:	15. 06. 2019 19:51

#	Program:	/corina/corina34_cracker 3.40 0067  02.08.2006

@<TRIPOS>MOLECULE
ASD01900384
  26   28    0    0    0
SMALL
NO_CHARGES


@<TRIPOS>ATOM
   1 C1            -0.0033     1.4000     0.0770 C.ar    
   2 C2             0.0100     0.0138    -0.0067 C.ar    
   3 N3             1.1379    -0.6592    -0.0273 N.ar    
   4 C4             2.3158    -0.0423     0.0307 C.ar    
   5 C5             2.3781     1.3617     0.1164 C.ar    
   6 C6             1.1903     2.0918     0.1399 C.ar    
   7 C7             3.7037    -0.5107     0.0270 C.2     
   8 N8             4.4783     0.5387     0.1039 N.2     
   9 N9             3.7042     1.7023     0.1604 N.pl3   
  10 N10            4.1242    -1.8423    -0.0454 N.pl3   
  11 C11            5.4852    -2.1402    -0.1653 C.ar    
  12 C12            5.9206    -3.4580    -0.0772 C.ar    
  13 C13            6.4045    -1.1212    -0.3783 C.ar    
  14 C14            7.7484    -1.4180    -0.4968 C.ar    
  15 C15            8.1806    -2.7282    -0.4043 C.ar    
  16 C16            7.2684    -3.7481    -0.1969 C.ar    
  17 Cl17           7.8158    -5.3914    -0.0808 Cl      
  18 F18            5.0295    -4.4531     0.1253 F       
  19 H19           -0.9418     1.9343     0.0885 H       
  20 H20           -0.9265    -0.5220    -0.0556 H       
  21 H21            1.2034     3.1698     0.2047 H       
  22 H22            4.0510     2.6062     0.2207 H       
  23 H23            3.4718    -2.5594    -0.0125 H       
  24 H24            6.0689    -0.0973    -0.4515 H       
  25 H25            8.4629    -0.6252    -0.6624 H       
  26 H26            9.2320    -2.9566    -0.4978 H       
@<TRIPOS>BOND
   1    1    2 ar
   2    1    6 ar
   3    1   19 1
   4    2    3 ar
   5    2   20 1
   6    3    4 ar
   7    4    5 ar
   8    4    7 1
   9    5    6 ar
  10    5    9 1
  11    6   21 1
  12    7    8 2
  13    7   10 1
  14    8    9 1
  15    9   22 1
  16   10   11 1
  17   10   23 1
  18   11   12 ar
  19   11   13 ar
  20   12   18 1
  21   12   16 ar
  22   13   14 ar
  23   13   24 1
  24   14   15 ar
  25   14   25 1
  26   15   16 ar
  27   15   26 1
  28   16   17 1

#	End of record

