#	Name: ASD05940029
#	Creating user name:	WinNT
#	Creation time:	15. 06. 2019 21:04

#	Modifying user name:	WinNT
#	Modification time:	15. 06. 2019 21:04

#	Program:	/corina/corina34_cracker 3.40 0067  02.08.2006

@<TRIPOS>MOLECULE
ASD05940029
  63   66    0    0    0
SMALL
NO_CHARGES


@<TRIPOS>ATOM
   1 N1            -0.0245     1.3267    -0.0939 N.ar    
   2 C2            -0.0012     0.0024    -0.0492 C.ar    
   3 N3             1.1336    -0.6840    -0.0413 N.ar    
   4 C4             2.3029    -0.0576    -0.0784 C.ar    
   5 C5             2.3187     1.3391    -0.1294 C.ar    
   6 C6             1.1048     2.0273    -0.1348 C.ar    
   7 N7             3.4905    -0.7694    -0.0619 N.3     
   8 C8             4.5244    -0.1333    -0.8846 C.3     
   9 C9             4.6461     1.3262    -0.5307 C.2     
  10 N10            3.5389     2.0183    -0.1779 N.am    
  11 N11            1.0769     3.4149    -0.1824 N.pl3   
  12 C12           -1.2862    -0.7362    -0.0062 C.2     
  13 C13            3.2746    -2.1632    -0.4725 C.3     
  14 O14            5.7270     1.8756    -0.5624 O.2     
  15 N15           -2.4464    -0.0629     0.1238 N.am    
  16 C16           -3.7221    -0.7781     0.0370 C.3     
  17 C17           -4.1370    -1.2520     1.4313 C.3     
  18 C18            4.6062    -2.8378    -0.6800 C.ar    
  19 C19            5.2239    -3.4864     0.3729 C.ar    
  20 C20            5.2072    -2.8127    -1.9246 C.ar    
  21 C21            6.4286    -3.4314    -2.1150 C.ar    
  22 C22            7.0492    -4.0749    -1.0606 C.ar    
  23 C23            6.4453    -4.1051     0.1826 C.ar    
  24 C24           10.7703    -4.4713    -0.9593 C.3     
  25 N25            9.4620    -3.7927    -0.9997 N.3     
  26 C26           11.4034    -4.1623     0.4137 C.3     
  27 C27           10.6744    -2.8644     0.8506 C.3     
  28 C28            9.2499    -3.1018     0.2901 C.3     
  29 C29           -5.4692    -1.9989     1.3406 C.3     
  30 C30            8.3805    -4.7499    -1.2682 C.3     
  31 O31           -1.2931    -1.9485    -0.0882 O.2     
  32 C32           -2.4320     1.3841     0.3520 C.3     
  33 H33            5.4798    -0.6281    -0.7101 H       
  34 H34            4.2577    -0.2287    -1.9372 H       
  35 H35            3.5906     2.9630     0.0359 H       
  36 H36            1.9069     3.9160    -0.2124 H       
  37 H37            0.2273     3.8831    -0.1858 H       
  38 H38            2.7182    -2.6886     0.3037 H       
  39 H39            2.7078    -2.1842    -1.4033 H       
  40 H40           -4.4861    -0.1111    -0.3623 H       
  41 H41           -3.6115    -1.6396    -0.6216 H       
  42 H42           -3.3730    -1.9190     1.8307 H       
  43 H43           -4.2475    -0.3906     2.0899 H       
  44 H44            4.7524    -3.5095     1.3443 H       
  45 H45            4.7223    -2.3100    -2.7484 H       
  46 H46            6.8978    -3.4125    -3.0875 H       
  47 H47            6.9302    -4.6079     1.0063 H       
  48 H48           10.6337    -5.5469    -1.0709 H       
  49 H49           11.4097    -4.0918    -1.7563 H       
  50 H50           11.2079    -4.9701     1.1189 H       
  51 H51           12.4747    -3.9876     0.3136 H       
  52 H52           10.6566    -2.7732     1.9366 H       
  53 H53           11.1323    -1.9868     0.3941 H       
  54 H54            8.7409    -2.1510     0.1322 H       
  55 H55            8.6755    -3.7326     0.9686 H       
  56 H56           -6.2332    -1.3319     0.9413 H       
  57 H57           -5.3587    -2.8604     0.6820 H       
  58 H58           -5.7648    -2.3366     2.3340 H       
  59 H59            8.4682    -5.5973    -0.5883 H       
  60 H60            8.4532    -5.1009    -2.2976 H       
  61 H61           -2.3462     1.9018    -0.6033 H       
  62 H62           -3.3566     1.6833     0.8457 H       
  63 H63           -1.5825     1.6439     0.9836 H       
@<TRIPOS>BOND
   1    1    2 ar
   2    1    6 ar
   3    2    3 ar
   4    2   12 1
   5    3    4 ar
   6    4    5 ar
   7    4    7 1
   8    5    6 ar
   9    5   10 1
  10    6   11 1
  11    7    8 1
  12    7   13 1
  13    8    9 1
  14    8   33 1
  15    8   34 1
  16    9   10 am
  17    9   14 2
  18   10   35 1
  19   11   36 1
  20   11   37 1
  21   12   15 am
  22   12   31 2
  23   13   18 1
  24   13   38 1
  25   13   39 1
  26   15   16 1
  27   15   32 1
  28   16   17 1
  29   16   40 1
  30   16   41 1
  31   17   29 1
  32   17   42 1
  33   17   43 1
  34   18   19 ar
  35   18   20 ar
  36   19   23 ar
  37   19   44 1
  38   20   21 ar
  39   20   45 1
  40   21   22 ar
  41   21   46 1
  42   22   23 ar
  43   22   30 1
  44   23   47 1
  45   24   25 1
  46   24   26 1
  47   24   48 1
  48   24   49 1
  49   25   28 1
  50   25   30 1
  51   26   27 1
  52   26   50 1
  53   26   51 1
  54   27   28 1
  55   27   52 1
  56   27   53 1
  57   28   54 1
  58   28   55 1
  59   29   56 1
  60   29   57 1
  61   29   58 1
  62   30   59 1
  63   30   60 1
  64   32   61 1
  65   32   62 1
  66   32   63 1

#	End of record

