#	Name: ASD08178015
#	Creating user name:	WinNT
#	Creation time:	15. 06. 2019 21:18

#	Modifying user name:	WinNT
#	Modification time:	15. 06. 2019 21:18

#	Program:	/corina/corina34_cracker 3.40 0067  02.08.2006

@<TRIPOS>MOLECULE
ASD08178015
  61   64    0    0    0
SMALL
NO_CHARGES


@<TRIPOS>ATOM
   1 C1            -0.0184     1.5028     0.0103 C.2     
   2 C2             0.0021    -0.0041     0.0020 C.3     
   3 C3            -0.0048    -0.5063    -1.4432 C.3     
   4 C4             0.0160    -2.0361    -1.4516 C.3     
   5 C5             0.0091    -2.5383    -2.8968 C.3     
   6 C6             0.0299    -4.0681    -2.9052 C.3     
   7 C7             0.0231    -4.5628    -4.3287 C.2     
   8 S8            -1.4058    -4.9237    -5.2980 S.3     
   9 C9            -0.3862    -5.3594    -6.6038 C.2     
  10 N10            0.8501    -5.2100    -6.2345 N.2     
  11 N11            1.0654    -4.7939    -5.0621 N.2     
  12 N12           -0.8116    -5.8004    -7.8523 N.am    
  13 C13            0.0934    -6.1140    -8.8006 C.2     
  14 O14            1.2787    -6.0115    -8.5651 O.2     
  15 C15           -0.3676    -6.5919   -10.1534 C.3     
  16 C16            0.8312    -6.8727   -11.0223 C.ar    
  17 C17            1.4008    -8.1323   -11.0281 C.ar    
  18 C18            1.3579    -5.8723   -11.8178 C.ar    
  19 C19            2.4576    -6.1299   -12.6148 C.ar    
  20 C20            3.0309    -7.3878   -12.6159 C.ar    
  21 C21            2.5005    -8.3898   -11.8250 C.ar    
  22 S22            1.3918     2.5625     0.0025 S.3     
  23 N23           -1.0746     2.2524     0.0187 N.2     
  24 N24           -0.8817     3.5001     0.0243 N.2     
  25 C25            0.3474     3.9203     0.0191 C.2     
  26 N26            0.7489     5.2518     0.0242 N.am    
  27 C27           -0.1741     6.2339     0.0349 C.2     
  28 O28           -1.3547     5.9565     0.0402 O.2     
  29 C29            0.2610     7.6767     0.0404 C.3     
  30 C30           -0.9543     8.5678     0.0523 C.ar    
  31 C31           -1.5048     8.9699     1.2549 C.ar    
  32 C32           -1.5151     8.9877    -1.1393 C.ar    
  33 C33           -2.6299     9.8051    -1.1284 C.ar    
  34 C34           -3.1840    10.2022     0.0741 C.ar    
  35 C35           -2.6196     9.7872     1.2658 C.ar    
  36 H36            0.9018    -0.3580     0.5054 H       
  37 H37           -0.8780    -0.3822     0.5223 H       
  38 H38           -0.9045    -0.1523    -1.9466 H       
  39 H39            0.8752    -0.1281    -1.9634 H       
  40 H40            0.9157    -2.3900    -0.9482 H       
  41 H41           -0.8641    -2.4143    -0.9314 H       
  42 H42           -0.8906    -2.1844    -3.4002 H       
  43 H43            0.8891    -2.1601    -3.4171 H       
  44 H44            0.9296    -4.4221    -2.4019 H       
  45 H45           -0.8502    -4.4463    -2.3850 H       
  46 H46           -1.7596    -5.8824    -8.0406 H       
  47 H47           -0.9532    -7.5037   -10.0365 H       
  48 H48           -0.9825    -5.8225   -10.6204 H       
  49 H49            0.9869    -8.9149   -10.4097 H       
  50 H50            0.9100    -4.8896   -11.8168 H       
  51 H51            2.8686    -5.3486   -13.2368 H       
  52 H52            3.8898    -7.5892   -13.2389 H       
  53 H53            2.9484    -9.3726   -11.8260 H       
  54 H54            1.6932     5.4737     0.0200 H       
  55 H55            0.8629     7.8713     0.9281 H       
  56 H56            0.8527     7.8812    -0.8518 H       
  57 H57           -1.0642     8.6451     2.1859 H       
  58 H58           -1.0822     8.6775    -2.0788 H       
  59 H59           -3.0676    10.1337    -2.0594 H       
  60 H60           -4.0548    10.8411     0.0826 H       
  61 H61           -3.0525    10.0975     2.2053 H       
@<TRIPOS>BOND
   1    1    2 1
   2    1   22 1
   3    1   23 2
   4    2    3 1
   5    2   36 1
   6    2   37 1
   7    3    4 1
   8    3   38 1
   9    3   39 1
  10    4    5 1
  11    4   40 1
  12    4   41 1
  13    5    6 1
  14    5   42 1
  15    5   43 1
  16    6    7 1
  17    6   44 1
  18    6   45 1
  19    7    8 1
  20    7   11 2
  21    8    9 1
  22    9   10 2
  23    9   12 1
  24   10   11 1
  25   12   13 am
  26   12   46 1
  27   13   14 2
  28   13   15 1
  29   15   16 1
  30   15   47 1
  31   15   48 1
  32   16   17 ar
  33   16   18 ar
  34   17   21 ar
  35   17   49 1
  36   18   19 ar
  37   18   50 1
  38   19   20 ar
  39   19   51 1
  40   20   21 ar
  41   20   52 1
  42   21   53 1
  43   22   25 1
  44   23   24 1
  45   24   25 2
  46   25   26 1
  47   26   27 am
  48   26   54 1
  49   27   28 2
  50   27   29 1
  51   29   30 1
  52   29   55 1
  53   29   56 1
  54   30   31 ar
  55   30   32 ar
  56   31   35 ar
  57   31   57 1
  58   32   33 ar
  59   32   58 1
  60   33   34 ar
  61   33   59 1
  62   34   35 ar
  63   34   60 1
  64   35   61 1

#	End of record

