#	Name: ASD00111117
#	Creating user name:	WinNT
#	Creation time:	15. 06. 2019 18:31

#	Modifying user name:	WinNT
#	Modification time:	15. 06. 2019 18:31

#	Program:	/corina/corina34_cracker 3.40 0067  02.08.2006

@<TRIPOS>MOLECULE
ASD00111117
  32   33    0    0    0
SMALL
NO_CHARGES


@<TRIPOS>ATOM
   1 N1             0.2924     1.5587     0.0547 N.am    
   2 C2             0.1632     0.1066    -0.0170 C.3     
   3 C3             0.6301    -0.5203     1.3014 C.3     
   4 C4             2.1403    -0.6018     1.2903 C.ar    
   5 C5             2.8965     0.5398     1.3931 C.ar    
   6 C6             2.2264     1.8899     1.5179 C.3     
   7 C7             1.5770     2.2413     0.1748 C.3     
   8 C8             4.2781     0.4639     1.3837 C.ar    
   9 C9             4.8973    -0.7673     1.2703 C.ar    
  10 C10            4.1360    -1.9176     1.1661 C.ar    
  11 C11            2.7543    -1.8363     1.1762 C.ar    
  12 C12            0.1716     0.3490     2.4740 C.3     
  13 Cl13           4.9136    -3.4630     1.0227 Cl      
  14 C14           -0.8282     2.3056     0.0020 C.2     
  15 O15           -1.9106     1.7686    -0.1026 O.2     
  16 C16           -0.7363     3.8082     0.0731 C.3     
  17 F17           -2.0207     4.3579    -0.0003 F       
  18 F18           -0.1374     4.1821     1.2809 F       
  19 F19            0.0344     4.2793    -0.9952 F       
  20 H20           -0.8797    -0.1562    -0.1941 H       
  21 H21            0.7757    -0.2719    -0.8354 H       
  22 H22            0.2105    -1.5215     1.3992 H       
  23 H23            1.4620     1.8485     2.2939 H       
  24 H24            2.9698     2.6450     1.7734 H       
  25 H25            2.2319     1.9269    -0.6378 H       
  26 H26            1.4217     3.3187     0.1180 H       
  27 H27            4.8708     1.3631     1.4643 H       
  28 H28            5.9754    -0.8308     1.2628 H       
  29 H29            2.1579    -2.7330     1.0949 H       
  30 H30           -0.7898    -0.0118     2.8396 H       
  31 H31            0.9083     0.2959     3.2756 H       
  32 H32            0.0695     1.3823     2.1422 H       
@<TRIPOS>BOND
   1    1    2 1
   2    1    7 1
   3    1   14 am
   4    2    3 1
   5    2   20 1
   6    2   21 1
   7    3    4 1
   8    3   12 1
   9    3   22 1
  10    4    5 ar
  11    4   11 ar
  12    5    6 1
  13    5    8 ar
  14    6    7 1
  15    6   23 1
  16    6   24 1
  17    7   25 1
  18    7   26 1
  19    8    9 ar
  20    8   27 1
  21    9   10 ar
  22    9   28 1
  23   10   11 ar
  24   10   13 1
  25   11   29 1
  26   12   30 1
  27   12   31 1
  28   12   32 1
  29   14   15 2
  30   14   16 1
  31   16   17 1
  32   16   18 1
  33   16   19 1

#	End of record

