#	Name: ASD01813052
#	Creating user name:	WinNT
#	Creation time:	15. 06. 2019 19:29

#	Modifying user name:	WinNT
#	Modification time:	15. 06. 2019 19:29

#	Program:	/corina/corina34_cracker 3.40 0067  02.08.2006

@<TRIPOS>MOLECULE
ASD01813052
  44   47    0    0    0
SMALL
NO_CHARGES


@<TRIPOS>ATOM
   1 N1            -0.0158     1.3147     0.0093 N.ar    
   2 C2             0.0021    -0.0041     0.0020 C.ar    
   3 C3             1.1989    -0.7033    -0.0127 C.ar    
   4 C4             2.3829    -0.0013    -0.0202 C.ar    
   5 C5             2.3448     1.3978    -0.0128 C.ar    
   6 C6             1.0955     2.0332     0.0025 C.ar    
   7 C7             3.8373    -0.3889    -0.0363 C.3     
   8 N8             4.5955     0.8684    -0.0373 N.am    
   9 C9             3.7280     1.8961    -0.0237 C.2     
  10 C10            6.0558     0.9844    -0.0504 C.3     
  11 C11            6.5432     1.0311    -1.4757 C.ar    
  12 O12            1.0255     3.3856     0.0100 O.3     
  13 O13            4.0429     3.0706    -0.0212 O.2     
  14 C14            6.6723     2.2469    -2.1237 C.ar    
  15 C15            7.1206     2.2885    -3.4345 C.ar    
  16 C16            7.4387     1.1155    -4.0940 C.ar    
  17 C17            7.3097    -0.0991    -3.4467 C.ar    
  18 C18            6.8675    -0.1420    -2.1355 C.ar    
  19 C19           -0.2795     3.9677     0.0251 C.3     
  20 F20            6.3611     3.3927    -1.4791 F       
  21 C21           -0.1576     5.4928     0.0317 C.3     
  22 O22            0.4061     5.9406    -1.2066 O.3     
  23 C23           -0.5326     6.7798    -1.8980 C.3     
  24 C24           -1.4572     7.3488    -0.7925 C.3     
  25 C25           -1.5578     6.1295     0.1641 C.3     
  26 F26            6.7475    -1.3290    -1.5016 F       
  27 Cl27           7.2824     3.8132    -4.2485 Cl      
  28 H28           -0.9309    -0.5480     0.0080 H       
  29 H29            1.2023    -1.7833    -0.0178 H       
  30 H30            4.0797    -0.9721     0.8522 H       
  31 H31            4.0624    -0.9631    -0.9351 H       
  32 H32            6.3524     1.8979     0.4651 H       
  33 H33            6.4932     0.1235     0.4552 H       
  34 H34            7.7877     1.1482    -5.1155 H       
  35 H35            7.5584    -1.0147    -3.9627 H       
  36 H36           -0.8289     3.6509    -0.8614 H       
  37 H37           -0.8123     3.6419     0.9185 H       
  38 H38            0.4741     5.8096     0.8615 H       
  39 H39           -0.0114     7.5893    -2.4091 H       
  40 H40           -1.1118     6.1925    -2.6105 H       
  41 H41           -0.9957     8.2016    -0.2948 H       
  42 H42           -2.4347     7.6134    -1.1957 H       
  43 H43           -2.3315     5.4378    -0.1690 H       
  44 H44           -1.7409     6.4542     1.1884 H       
@<TRIPOS>BOND
   1    1    2 ar
   2    1    6 ar
   3    2    3 ar
   4    2   28 1
   5    3    4 ar
   6    3   29 1
   7    4    7 1
   8    4    5 ar
   9    5    6 ar
  10    5    9 1
  11    6   12 1
  12    7    8 1
  13    7   30 1
  14    7   31 1
  15    8    9 am
  16    8   10 1
  17    9   13 2
  18   10   11 1
  19   10   32 1
  20   10   33 1
  21   11   14 ar
  22   11   18 ar
  23   12   19 1
  24   14   15 ar
  25   14   20 1
  26   15   16 ar
  27   15   27 1
  28   16   17 ar
  29   16   34 1
  30   17   18 ar
  31   17   35 1
  32   18   26 1
  33   19   21 1
  34   19   36 1
  35   19   37 1
  36   21   22 1
  37   21   25 1
  38   21   38 1
  39   22   23 1
  40   23   24 1
  41   23   39 1
  42   23   40 1
  43   24   25 1
  44   24   41 1
  45   24   42 1
  46   25   43 1
  47   25   44 1

#	End of record

