#	Name: ASD01912945
#	Creating user name:	WinNT
#	Creation time:	15. 06. 2019 20:00

#	Modifying user name:	WinNT
#	Modification time:	15. 06. 2019 20:00

#	Program:	/corina/corina34_cracker 3.40 0067  02.08.2006

@<TRIPOS>MOLECULE
ASD01912945
  28   30    0    0    0
SMALL
NO_CHARGES


@<TRIPOS>ATOM
   1 C1            -0.0173     1.4278     0.0099 C.2     
   2 C2             0.0021    -0.0041     0.0020 C.1     
   3 C3             0.0180    -1.1779    -0.0044 C.1     
   4 C4             0.0374    -2.6098    -0.0123 C.ar    
   5 C5            -1.1639    -3.3307    -0.0047 C.ar    
   6 C6             1.2577    -3.2977    -0.0335 C.ar    
   7 C7             1.2671    -4.6757    -0.0414 C.ar    
   8 C8             0.0750    -5.3804    -0.0285 C.ar    
   9 C9            -1.1358    -4.7085    -0.0129 C.ar    
  10 N10            1.0467     2.2004     0.0039 N.2     
  11 C11            0.8699     3.4866     0.0117 C.2     
  12 C12           -0.4777     3.8655     0.0260 C.2     
  13 S13           -1.4710     2.4241     0.0214 S.3     
  14 C14            1.9537     4.5534     0.0067 C.3     
  15 C15            1.4497     5.7739    -0.7578 C.3     
  16 C16            0.0784     6.2031    -0.3266 C.2     
  17 C17           -0.8886     5.2768     0.0367 C.2     
  18 O18           -2.1232     5.6466     0.3770 O.2     
  19 H19           -2.1090    -2.8083     0.0078 H       
  20 H20            2.1883    -2.7497    -0.0440 H       
  21 H21            2.2068    -5.2077    -0.0582 H       
  22 H22            0.0896    -6.4603    -0.0348 H       
  23 H23           -2.0608    -5.2659    -0.0029 H       
  24 H24            2.1899     4.8377     1.0321 H       
  25 H25            2.8476     4.1626    -0.4794 H       
  26 H26            2.1430     6.5997    -0.5985 H       
  27 H27            1.4260     5.5375    -1.8216 H       
  28 H28           -0.1614     7.2558    -0.2988 H       
@<TRIPOS>BOND
   1    1    2 1
   2    1   10 2
   3    1   13 1
   4    2    3 3
   5    3    4 1
   6    4    5 ar
   7    4    6 ar
   8    5    9 ar
   9    5   19 1
  10    6    7 ar
  11    6   20 1
  12    7    8 ar
  13    7   21 1
  14    8    9 ar
  15    8   22 1
  16    9   23 1
  17   10   11 1
  18   11   12 2
  19   11   14 1
  20   12   13 1
  21   12   17 1
  22   14   15 1
  23   14   24 1
  24   14   25 1
  25   15   16 1
  26   15   26 1
  27   15   27 1
  28   16   17 1
  29   16   28 1
  30   17   18 2

#	End of record

