#	Name: ASD01814240
#	Creating user name:	WinNT
#	Creation time:	15. 06. 2019 19:32

#	Modifying user name:	WinNT
#	Modification time:	15. 06. 2019 19:32

#	Program:	/corina/corina34_cracker 3.40 0067  02.08.2006

@<TRIPOS>MOLECULE
ASD01814240
  48   52    0    0    0
SMALL
NO_CHARGES


@<TRIPOS>ATOM
   1 N1            -0.2352     2.3544    -3.5782 N.2     
   2 C2            -0.3054     1.3455    -4.4143 C.2     
   3 C3             0.7951     1.0171    -5.2206 C.2     
   4 C4             1.9316     1.7512    -5.1282 C.2     
   5 N5             1.9779     2.7960    -4.2497 N.pl3   
   6 C6             0.8823     3.0865    -3.4785 C.2     
   7 N7             2.9787     3.7189    -3.9290 N.2     
   8 C8             2.5220     4.5393    -3.0043 C.2     
   9 C9             1.2203     4.1830    -2.6942 C.2     
  10 C10            2.9112     5.7298    -2.1628 C.3     
  11 N11            1.7626     6.0751    -1.3195 N.am    
  12 C12            0.6960     5.1201    -1.6367 C.3     
  13 C13            1.6991     7.0795    -0.4231 C.2     
  14 O14            0.6521     7.3210     0.1463 O.2     
  15 C15            2.8989     7.8853    -0.1328 C.ar    
  16 C16            2.8027     9.2807    -0.0293 C.ar    
  17 C17            4.1368     7.2623     0.0464 C.ar    
  18 C18            5.2545     8.0196     0.3178 C.ar    
  19 C19            5.1572     9.4009     0.4145 C.ar    
  20 C20            3.9359    10.0291     0.2443 C.ar    
  21 O21            1.6048     9.8950    -0.1968 O.3     
  22 C22            1.6030    11.3240    -0.1967 C.3     
  23 Cl23           0.7028    -0.3179    -6.3265 Cl      
  24 F24            6.2593    10.1352     0.6816 F       
  25 C25            0.3859    11.8342    -0.9733 C.3     
  26 C26            0.3559    13.3633    -0.9180 C.3     
  27 N27            0.2854    13.8025     0.4814 N.3     
  28 C28            1.4668    13.3646     1.2356 C.3     
  29 C29            1.5300    11.8355     1.2447 C.3     
  30 H30           -1.2139     0.7654    -4.4820 H       
  31 H31            2.7886     1.5127    -5.7407 H       
  32 H32            3.7662     5.4757    -1.5363 H       
  33 H33            3.1622     6.5718    -2.8079 H       
  34 H34           -0.1768     5.6525    -2.0147 H       
  35 H35            0.4278     4.5561    -0.7434 H       
  36 H36            4.2169     6.1878    -0.0277 H       
  37 H37            6.2106     7.5369     0.4564 H       
  38 H38            3.8663    11.1039     0.3245 H       
  39 H39            2.5153    11.6895    -0.6681 H       
  40 H40            0.4540    11.5088    -2.0113 H       
  41 H41           -0.5246    11.4360    -0.5255 H       
  42 H42            1.2603    13.7611    -1.3784 H       
  43 H43           -0.5174    13.7291    -1.4580 H       
  44 H44            0.1688    14.8030     0.5409 H       
  45 H45            2.3660    13.7624     0.7652 H       
  46 H46            1.4004    13.7314     2.2599 H       
  47 H47            0.6375    11.4373     1.7274 H       
  48 H48            2.4155    11.5111     1.7913 H       
@<TRIPOS>BOND
   1    1    2 2
   2    1    6 1
   3    2    3 1
   4    2   30 1
   5    3    4 2
   6    3   23 1
   7    4    5 1
   8    4   31 1
   9    5    7 1
  10    5    6 1
  11    6    9 2
  12    7    8 2
  13    8   10 1
  14    8    9 1
  15    9   12 1
  16   10   11 1
  17   10   32 1
  18   10   33 1
  19   11   12 1
  20   11   13 am
  21   12   34 1
  22   12   35 1
  23   13   14 2
  24   13   15 1
  25   15   17 ar
  26   15   16 ar
  27   16   20 ar
  28   16   21 1
  29   17   18 ar
  30   17   36 1
  31   18   19 ar
  32   18   37 1
  33   19   20 ar
  34   19   24 1
  35   20   38 1
  36   21   22 1
  37   22   25 1
  38   22   29 1
  39   22   39 1
  40   25   26 1
  41   25   40 1
  42   25   41 1
  43   26   27 1
  44   26   42 1
  45   26   43 1
  46   27   28 1
  47   27   44 1
  48   28   29 1
  49   28   45 1
  50   28   46 1
  51   29   47 1
  52   29   48 1

#	End of record

