#	Name: ASD01840428
#	Creating user name:	WinNT
#	Creation time:	15. 06. 2019 19:37

#	Modifying user name:	WinNT
#	Modification time:	15. 06. 2019 19:37

#	Program:	/corina/corina34_cracker 3.40 0067  02.08.2006

@<TRIPOS>MOLECULE
ASD01840428
  49   52    0    0    0
SMALL
NO_CHARGES


@<TRIPOS>ATOM
   1 C1            -0.0729     1.3845     0.1036 C.ar    
   2 C2            -0.0452     0.0444    -0.2142 C.ar    
   3 N3             1.0508    -0.6657    -0.0087 N.ar    
   4 N4             2.1193    -0.1598     0.4838 N.ar    
   5 C5             1.0963     1.9625     0.6485 C.ar    
   6 C6             1.3577     3.3257     1.0722 C.2     
   7 C7             2.2070     1.1271     0.8280 C.ar    
   8 S8             3.5438     2.0413     1.5118 S.3     
   9 C9             2.6099     3.5240     1.5534 C.2     
  10 C10           -1.3112     2.2114    -0.1286 C.3     
  11 C11           -1.2686    -0.6145    -0.7975 C.3     
  12 N12            0.4100     4.3370     0.9917 N.pl3   
  13 C13            3.1152     4.8065     2.0413 C.2     
  14 O14            2.3947     5.7879     2.0321 O.2     
  15 N15            4.3784     4.9022     2.5012 N.am    
  16 C16            4.8846     6.1871     2.9900 C.3     
  17 C17            6.3125     6.0247     3.4438 C.ar    
  18 C18            7.3475     6.2199     2.5479 C.ar    
  19 C19            8.6572     6.0719     2.9606 C.ar    
  20 C20            8.9340     5.7270     4.2770 C.ar    
  21 C21            7.8923     5.5320     5.1744 C.ar    
  22 C22            6.5849     5.6863     4.7566 C.ar    
  23 N23           10.2598     5.5757     4.6982 N.am    
  24 C24           10.6235     5.1420     5.9174 C.2     
  25 C25           12.1318     5.1110     6.0301 C.3     
  26 C26           12.6183     5.9819     4.8487 C.3     
  27 C27           11.4319     5.8643     3.8634 C.3     
  28 O28            9.8543     4.8225     6.7990 O.2     
  29 H29           -1.8925     2.2617     0.7920 H       
  30 H30           -1.0241     3.2181    -0.4326 H       
  31 H31           -1.9126     1.7525    -0.9134 H       
  32 H32           -1.2368    -0.5421    -1.8846 H       
  33 H33           -1.2911    -1.6639    -0.5037 H       
  34 H34           -2.1628    -0.1140    -0.4261 H       
  35 H35           -0.5249     4.1160     0.8571 H       
  36 H36            0.6827     5.2646     1.0700 H       
  37 H37            4.9524     4.1203     2.5086 H       
  38 H38            4.8398     6.9240     2.1882 H       
  39 H39            4.2733     6.5236     3.8274 H       
  40 H40            7.1316     6.4882     1.5242 H       
  41 H41            9.4652     6.2238     2.2602 H       
  42 H42            8.1043     5.2637     6.1988 H       
  43 H43            5.7745     5.5389     5.4550 H       
  44 H44           12.4524     5.5414     6.9788 H       
  45 H45           12.5009     4.0904     5.9290 H       
  46 H46           12.7694     7.0149     5.1619 H       
  47 H47           13.5281     5.5717     4.4103 H       
  48 H48           11.6026     5.0506     3.1586 H       
  49 H49           11.2923     6.8041     3.3291 H       
@<TRIPOS>BOND
   1    1    2 ar
   2    1    5 ar
   3    1   10 1
   4    2   11 1
   5    2    3 ar
   6    3    4 ar
   7    4    7 ar
   8    5    7 ar
   9    5    6 1
  10    6    9 2
  11    6   12 1
  12    7    8 1
  13    8    9 1
  14    9   13 1
  15   10   29 1
  16   10   30 1
  17   10   31 1
  18   11   32 1
  19   11   33 1
  20   11   34 1
  21   12   35 1
  22   12   36 1
  23   13   14 2
  24   13   15 am
  25   15   16 1
  26   15   37 1
  27   16   17 1
  28   16   38 1
  29   16   39 1
  30   17   18 ar
  31   17   22 ar
  32   18   19 ar
  33   18   40 1
  34   19   20 ar
  35   19   41 1
  36   20   21 ar
  37   20   23 1
  38   21   22 ar
  39   21   42 1
  40   22   43 1
  41   23   24 am
  42   23   27 1
  43   24   25 1
  44   24   28 2
  45   25   26 1
  46   25   44 1
  47   25   45 1
  48   26   27 1
  49   26   46 1
  50   26   47 1
  51   27   48 1
  52   27   49 1

#	End of record

