#	Name: ASD01911961
#	Creating user name:	WinNT
#	Creation time:	15. 06. 2019 19:58

#	Modifying user name:	WinNT
#	Modification time:	15. 06. 2019 19:58

#	Program:	/corina/corina34_cracker 3.40 0067  02.08.2006

@<TRIPOS>MOLECULE
ASD01911961
  34   36    0    0    0
SMALL
NO_CHARGES


@<TRIPOS>ATOM
   1 C1            -1.3599     1.1650     1.7765 C.ar    
   2 C2            -1.1990    -0.2025     1.5781 C.ar    
   3 C3            -1.1340    -1.0277     2.6962 C.ar    
   4 N4            -1.2270    -0.4866     3.8997 N.ar    
   5 C5            -1.3791     0.8143     4.0465 C.ar    
   6 N6            -1.4450     1.6287     3.0125 N.ar    
   7 O7            -1.1079    -0.7190     0.3243 O.3     
   8 C8            -0.9467    -2.0623     0.1979 C.ar    
   9 C9             0.4678    -3.9540    -0.2340 C.ar    
  10 C10           -0.6117    -4.8026    -0.0612 C.ar    
  11 C11           -1.8642    -4.2817     0.2365 C.ar    
  12 C12           -2.0310    -2.9095     0.3660 C.ar    
  13 N13           -2.9551    -5.1387     0.4107 N.am    
  14 C14           -2.7704    -6.3669     0.9340 C.2     
  15 C15           -3.9065    -7.3134     1.0213 C.ar    
  16 O16           -1.6716    -6.6980     1.3341 O.2     
  17 N17           -5.1043    -6.9460     0.5826 N.ar    
  18 C18           -6.1396    -7.7555     0.6411 C.ar    
  19 C19           -6.0169    -9.0309     1.1668 C.ar    
  20 C20           -4.7827    -9.4567     1.6372 C.ar    
  21 C21           -3.7077    -8.5832     1.5578 C.ar    
  22 C22            0.3024    -2.5861    -0.1051 C.ar    
  23 Cl23          -4.5871   -11.0475     2.3040 Cl      
  24 F24            1.6858    -4.4620    -0.5231 F       
  25 H25           -1.4103     1.8387     0.9339 H       
  26 H26           -1.0099    -2.0946     2.5833 H       
  27 H27           -1.4521     1.2247     5.0428 H       
  28 H28           -0.4811    -5.8699    -0.1625 H       
  29 H29           -3.0042    -2.5026     0.5977 H       
  30 H30           -3.8450    -4.8493     0.1551 H       
  31 H31           -7.0987    -7.4207     0.2744 H       
  32 H32           -6.8733    -9.6874     1.2105 H       
  33 H33           -2.7326    -8.8808     1.9142 H       
  34 H34            1.1460    -1.9255    -0.2407 H       
@<TRIPOS>BOND
   1    1    2 ar
   2    1    6 ar
   3    1   25 1
   4    2    3 ar
   5    2    7 1
   6    3    4 ar
   7    3   26 1
   8    4    5 ar
   9    5    6 ar
  10    5   27 1
  11    7    8 1
  12    8   22 ar
  13    8   12 ar
  14    9   10 ar
  15    9   22 ar
  16    9   24 1
  17   10   11 ar
  18   10   28 1
  19   11   12 ar
  20   11   13 1
  21   12   29 1
  22   13   14 am
  23   13   30 1
  24   14   15 1
  25   14   16 2
  26   15   17 ar
  27   15   21 ar
  28   17   18 ar
  29   18   19 ar
  30   18   31 1
  31   19   20 ar
  32   19   32 1
  33   20   21 ar
  34   20   23 1
  35   21   33 1
  36   22   34 1

#	End of record

