#	Name: ASD05720071
#	Creating user name:	WinNT
#	Creation time:	15. 06. 2019 21:01

#	Modifying user name:	WinNT
#	Modification time:	15. 06. 2019 21:01

#	Program:	/corina/corina34_cracker 3.40 0067  02.08.2006

@<TRIPOS>MOLECULE
ASD05720071
  25   26    0    0    0
SMALL
NO_CHARGES


@<TRIPOS>ATOM
   1 O1            -0.0161     1.3335     0.0094 O.3     
   2 C2             0.0021    -0.0041     0.0020 C.2     
   3 N3             1.2348    -0.5293    -0.0126 N.am    
   4 C4             2.2183     0.5645    -0.0161 C.3     
   5 C5             1.3508     1.8380    -0.0010 C.3     
   6 O6            -1.0070    -0.6809     0.0087 O.2     
   7 C7             4.6408    -0.8859    -2.6322 C.3     
   8 C8             3.8481    -0.8088    -1.3248 C.3     
   9 C9             3.0750     0.5129    -1.2827 C.3     
  10 C10            2.1716     0.6028    -2.5164 C.3     
  11 C11            3.0291     0.4712    -3.7778 C.3     
  12 O12            3.7448    -0.7651    -3.7389 O.3     
  13 H13            1.4444    -1.4764    -0.0197 H       
  14 H14            2.8457     0.5181     0.8740 H       
  15 H15            1.5314     2.4340    -0.8956 H       
  16 H16            1.5485     2.4243     0.8964 H       
  17 H17            5.3691    -0.0755    -2.6640 H       
  18 H18            5.1592    -1.8431    -2.6871 H       
  19 H19            3.1476    -1.6424    -1.2739 H       
  20 H20            4.5344    -0.8565    -0.4793 H       
  21 H21            3.7775     1.3463    -1.2819 H       
  22 H22            1.4372    -0.2022    -2.4896 H       
  23 H23            1.6590     1.5647    -2.5231 H       
  24 H24            2.3864     0.4916    -4.6580 H       
  25 H25            3.7363     1.2993    -3.8246 H       
@<TRIPOS>BOND
   1    1    2 1
   2    1    5 1
   3    2    3 am
   4    2    6 2
   5    3    4 1
   6    3   13 1
   7    4    5 1
   8    4    9 1
   9    4   14 1
  10    5   15 1
  11    5   16 1
  12    7    8 1
  13    7   12 1
  14    7   17 1
  15    7   18 1
  16    8    9 1
  17    8   19 1
  18    8   20 1
  19    9   10 1
  20    9   21 1
  21   10   11 1
  22   10   22 1
  23   10   23 1
  24   11   12 1
  25   11   24 1
  26   11   25 1

#	End of record

