#	Name: ASD01911370
#	Creating user name:	WinNT
#	Creation time:	15. 06. 2019 19:57

#	Modifying user name:	WinNT
#	Modification time:	15. 06. 2019 19:57

#	Program:	/corina/corina34_cracker 3.40 0067  02.08.2006

@<TRIPOS>MOLECULE
ASD01911370
  43   46    0    0    0
SMALL
NO_CHARGES


@<TRIPOS>ATOM
   1 C1            -0.0173     1.4278     0.0099 C.ar    
   2 C2             0.0021    -0.0041     0.0020 C.1     
   3 C3             0.0180    -1.1779    -0.0044 C.1     
   4 C4             0.0374    -2.6098    -0.0123 C.ar    
   5 N5            -1.1126    -3.2811    -0.0049 N.ar    
   6 C6            -1.1402    -4.5954    -0.0108 C.ar    
   7 C7             0.0510    -5.3262    -0.0416 C.ar    
   8 C8             1.2772    -4.6524    -0.0428 C.ar    
   9 C9             1.2645    -3.2821    -0.0334 C.ar    
  10 C10           -2.4537    -5.3334     0.0374 C.3     
  11 C11           -2.3546    -6.6319    -0.7588 C.3     
  12 N12           -1.1812    -7.4046    -0.3572 N.am    
  13 C13           -0.0076    -6.7990    -0.0930 C.2     
  14 O14            0.9942    -7.4601     0.1009 O.2     
  15 C15           -1.2831    -8.8613    -0.2396 C.3     
  16 C16           -0.2927    -9.5384    -1.2031 C.3     
  17 C17            0.6707   -10.3706    -0.3318 C.3     
  18 C18           -0.1280   -10.6384     0.9680 C.3     
  19 C19           -0.8870    -9.3056     1.1836 C.3     
  20 C20            1.1759     2.1550     0.0024 C.ar    
  21 N21            1.1570     3.4716     0.0092 N.ar    
  22 C22            0.0271     4.1525     0.0232 C.ar    
  23 C23           -1.1970     3.5071     0.0318 C.ar    
  24 C24           -1.2339     2.1246     0.0194 C.ar    
  25 H25            2.2092    -5.1980    -0.0553 H       
  26 H26            2.1912    -2.7273    -0.0338 H       
  27 H27           -2.7016    -5.5628     1.0737 H       
  28 H28           -3.2365    -4.7065    -0.3894 H       
  29 H29           -3.2513    -7.2271    -0.5860 H       
  30 H30           -2.2816    -6.3961    -1.8205 H       
  31 H31           -2.3003    -9.1833    -0.4626 H       
  32 H32           -0.8291   -10.1898    -1.8931 H       
  33 H33            0.2638    -8.7832    -1.7582 H       
  34 H34            0.9190   -11.3092    -0.8272 H       
  35 H35            1.5750    -9.8024    -0.1136 H       
  36 H36           -0.8272   -11.4629     0.8287 H       
  37 H37            0.5458   -10.8384     1.8011 H       
  38 H38           -0.2343    -8.5654     1.6465 H       
  39 H39           -1.7755    -9.4669     1.7940 H       
  40 H40            2.1213     1.6330    -0.0087 H       
  41 H41            0.0580     5.2320     0.0283 H       
  42 H42           -2.1141     4.0772     0.0436 H       
  43 H43           -2.1754     1.5954     0.0253 H       
@<TRIPOS>BOND
   1    1    2 1
   2    1   20 ar
   3    1   24 ar
   4    2    3 3
   5    3    4 1
   6    4    5 ar
   7    4    9 ar
   8    5    6 ar
   9    6    7 ar
  10    6   10 1
  11    7    8 ar
  12    7   13 1
  13    8    9 ar
  14    8   25 1
  15    9   26 1
  16   10   11 1
  17   10   27 1
  18   10   28 1
  19   11   12 1
  20   11   29 1
  21   11   30 1
  22   12   13 am
  23   12   15 1
  24   13   14 2
  25   15   16 1
  26   15   19 1
  27   15   31 1
  28   16   17 1
  29   16   32 1
  30   16   33 1
  31   17   18 1
  32   17   34 1
  33   17   35 1
  34   18   19 1
  35   18   36 1
  36   18   37 1
  37   19   38 1
  38   19   39 1
  39   20   21 ar
  40   20   40 1
  41   21   22 ar
  42   22   23 ar
  43   22   41 1
  44   23   24 ar
  45   23   42 1
  46   24   43 1

#	End of record

