#	Name: ASD03082317
#	Creating user name:	WinNT
#	Creation time:	15. 06. 2019 20:27

#	Modifying user name:	WinNT
#	Modification time:	15. 06. 2019 20:27

#	Program:	/corina/corina34_cracker 3.40 0067  02.08.2006

@<TRIPOS>MOLECULE
ASD03082317
  39   42    0    0    0
SMALL
NO_CHARGES


@<TRIPOS>ATOM
   1 C1            -0.1385     1.4409     0.1301 C.ar    
   2 C2            -0.1861     0.1216    -0.2995 C.ar    
   3 C3            -1.3969    -0.5497    -0.3400 C.ar    
   4 C4            -2.5648     0.1009     0.0507 C.ar    
   5 C5            -2.5131     1.4176     0.4784 C.ar    
   6 C6            -1.3040     2.0849     0.5245 C.ar    
   7 O7            -1.7117    -1.8241    -0.7148 O.3     
   8 C8            -3.0175    -2.0759    -0.1631 C.3     
   9 O9            -3.6118    -0.7671    -0.0795 O.3     
  10 F10           -3.7607    -2.8997    -1.0153 F       
  11 F11           -2.9117    -2.6499     1.1084 F       
  12 N12            1.0848     2.1199     0.1712 N.pl3   
  13 C13            1.1226     3.5001    -0.0206 C.2     
  14 N14            2.2096     4.2672     0.0963 N.2     
  15 N15            0.0967     4.2495    -0.3501 N.2     
  16 N16            0.5654     5.5703    -0.4406 N.am    
  17 C17            1.8983     5.5220    -0.1506 C.2     
  18 C18            2.8263     6.6735    -0.1187 C.ar    
  19 C19            2.5681     7.7824     0.6935 C.ar    
  20 C20            3.4621     8.8359     0.6928 C.ar    
  21 N21            4.5456     8.8048    -0.0601 N.ar    
  22 C22            4.8268     7.7789    -0.8402 C.ar    
  23 C23            3.9912     6.6810    -0.8967 C.ar    
  24 C24           -0.1552     6.6650    -0.7551 C.2     
  25 N25           -1.4465     6.5397    -1.1203 N.am    
  26 O26            0.3592     7.7648    -0.7094 O.2     
  27 C27           -2.2298     7.7296    -1.4621 C.3     
  28 Cl28           4.3712     5.3365    -1.9271 Cl      
  29 Cl29           3.1557    10.2195     1.6956 Cl      
  30 H30            0.7206    -0.3810    -0.6024 H       
  31 H31           -3.4190     1.9220     0.7810 H       
  32 H32           -1.2666     3.1112     0.8587 H       
  33 H33            1.9062     1.6301     0.3332 H       
  34 H34            1.6831     7.8149     1.3116 H       
  35 H35            5.7248     7.7961    -1.4400 H       
  36 H36           -1.8572     5.6617    -1.1567 H       
  37 H37           -1.7658     8.2399    -2.3061 H       
  38 H38           -3.2438     7.4325    -1.7300 H       
  39 H39           -2.2627     8.4017    -0.6046 H       
@<TRIPOS>BOND
   1    1    2 ar
   2    1   12 1
   3    1    6 ar
   4    2    3 ar
   5    2   30 1
   6    3    4 ar
   7    3    7 1
   8    4    5 ar
   9    4    9 1
  10    5    6 ar
  11    5   31 1
  12    6   32 1
  13    7    8 1
  14    8    9 1
  15    8   10 1
  16    8   11 1
  17   12   13 1
  18   12   33 1
  19   13   14 1
  20   13   15 2
  21   14   17 2
  22   15   16 1
  23   16   17 1
  24   16   24 am
  25   17   18 1
  26   18   19 ar
  27   18   23 ar
  28   19   20 ar
  29   19   34 1
  30   20   21 ar
  31   20   29 1
  32   21   22 ar
  33   22   23 ar
  34   22   35 1
  35   23   28 1
  36   24   25 am
  37   24   26 2
  38   25   27 1
  39   25   36 1
  40   27   37 1
  41   27   38 1
  42   27   39 1

#	End of record

