#	Name: ASD05940015
#	Creating user name:	WinNT
#	Creation time:	15. 06. 2019 21:04

#	Modifying user name:	WinNT
#	Modification time:	15. 06. 2019 21:04

#	Program:	/corina/corina34_cracker 3.40 0067  02.08.2006

@<TRIPOS>MOLECULE
ASD05940015
  59   63    0    0    0
SMALL
NO_CHARGES


@<TRIPOS>ATOM
   1 N1            -0.0159     1.3181     0.0093 N.ar    
   2 C2             0.0021    -0.0041     0.0020 C.ar    
   3 N3             1.1319    -0.6930    -0.0101 N.ar    
   4 C4             2.3066    -0.0681    -0.0158 C.ar    
   5 C5             2.3274     1.3257    -0.0126 C.ar    
   6 C6             1.1197     2.0168     0.0022 C.ar    
   7 N7             3.4912    -0.7843    -0.0194 N.3     
   8 C8             4.5325    -0.1239    -0.8126 C.3     
   9 C9             4.6626     1.3202    -0.4024 C.2     
  10 N10            3.5574     2.0048    -0.0283 N.am    
  11 N11            1.0976     3.4049     0.0085 N.pl3   
  12 O12           -1.1750    -0.6756     0.0076 O.3     
  13 C13            3.2722    -2.1617    -0.4807 C.3     
  14 O14            5.7473     1.8634    -0.4080 O.2     
  15 C15           -2.3694     0.1089     0.0211 C.3     
  16 C16           -3.5876    -0.8168     0.0256 C.3     
  17 C17            4.6022    -2.8335    -0.7061 C.ar    
  18 C18            5.2290    -3.5289     0.3192 C.ar    
  19 C19            6.4472    -4.1332     0.0804 C.ar    
  20 N20            7.0193    -4.0569    -1.1061 N.ar    
  21 C21            6.4534    -3.4032    -2.1091 C.ar    
  22 C22            5.2234    -2.7760    -1.9408 C.ar    
  23 N23            7.0917    -3.3482    -3.3428 N.3     
  24 C24            8.3683    -4.0763    -3.3084 C.3     
  25 C25            9.0073    -4.0411    -4.6993 C.3     
  26 O26            9.1708    -2.6807    -5.1089 O.3     
  27 C27            7.9471    -1.9420    -5.1541 C.3     
  28 C28            7.2973    -1.9559    -3.7679 C.3     
  29 O29           -3.6392    -1.5460     1.2573 O.3     
  30 C30           -4.8403    -1.2161     1.9729 C.3     
  31 C31           -5.8370    -0.7333     0.8893 C.3     
  32 C32           -4.8812     0.0195    -0.0760 C.3     
  33 H33            5.4840    -0.6315    -0.6537 H       
  34 H34            4.2697    -0.1768    -1.8692 H       
  35 H35            3.6126     2.9403     0.2223 H       
  36 H36            1.9298     3.9032     0.0026 H       
  37 H37            0.2500     3.8765     0.0188 H       
  38 H38            2.7102    -2.7125     0.2736 H       
  39 H39            2.7096    -2.1471    -1.4142 H       
  40 H40           -2.3840     0.7330     0.9146 H       
  41 H41           -2.3979     0.7426    -0.8653 H       
  42 H42           -3.5275    -1.5108    -0.8128 H       
  43 H43            4.7685    -3.5961     1.2938 H       
  44 H44            6.9382    -4.6752     0.8751 H       
  45 H45            4.7638    -2.2435    -2.7604 H       
  46 H46            9.0372    -3.6046    -2.5886 H       
  47 H47            8.1894    -5.1111    -3.0162 H       
  48 H48            9.9807    -4.5305    -4.6651 H       
  49 H49            8.3631    -4.5601    -5.4090 H       
  50 H50            8.1536    -0.9132    -5.4489 H       
  51 H51            7.2720    -2.3999    -5.8771 H       
  52 H52            6.3366    -1.4428    -3.8111 H       
  53 H53            7.9491    -1.4503    -3.0554 H       
  54 H54           -5.2318    -2.0971     2.4814 H       
  55 H55           -4.6462    -0.4190     2.6906 H       
  56 H56           -6.3144    -1.5769     0.3907 H       
  57 H57           -6.5803    -0.0575     1.3124 H       
  58 H58           -4.7108     1.0407     0.2650 H       
  59 H59           -5.2709     0.0093    -1.0939 H       
@<TRIPOS>BOND
   1    1    2 ar
   2    1    6 ar
   3    2    3 ar
   4    2   12 1
   5    3    4 ar
   6    4    5 ar
   7    4    7 1
   8    5    6 ar
   9    5   10 1
  10    6   11 1
  11    7    8 1
  12    7   13 1
  13    8    9 1
  14    8   33 1
  15    8   34 1
  16    9   10 am
  17    9   14 2
  18   10   35 1
  19   11   36 1
  20   11   37 1
  21   12   15 1
  22   13   17 1
  23   13   38 1
  24   13   39 1
  25   15   16 1
  26   15   40 1
  27   15   41 1
  28   16   29 1
  29   16   32 1
  30   16   42 1
  31   17   18 ar
  32   17   22 ar
  33   18   19 ar
  34   18   43 1
  35   19   20 ar
  36   19   44 1
  37   20   21 ar
  38   21   22 ar
  39   21   23 1
  40   22   45 1
  41   23   24 1
  42   23   28 1
  43   24   25 1
  44   24   46 1
  45   24   47 1
  46   25   26 1
  47   25   48 1
  48   25   49 1
  49   26   27 1
  50   27   28 1
  51   27   50 1
  52   27   51 1
  53   28   52 1
  54   28   53 1
  55   29   30 1
  56   30   31 1
  57   30   54 1
  58   30   55 1
  59   31   32 1
  60   31   56 1
  61   31   57 1
  62   32   58 1
  63   32   59 1

#	End of record

