#	Name: ASD01411140
#	Creating user name:	WinNT
#	Creation time:	15. 06. 2019 19:19

#	Modifying user name:	WinNT
#	Modification time:	15. 06. 2019 19:19

#	Program:	/corina/corina34_cracker 3.40 0067  02.08.2006

@<TRIPOS>MOLECULE
ASD01411140
  68   71    0    0    0
SMALL
NO_CHARGES


@<TRIPOS>ATOM
   1 S1             1.0417     1.4207    -0.2346 S.3     
   2 O2             1.4044    -2.7888    -3.2368 O.3     
   3 O3             0.6073    -4.7172     1.0640 O.3     
   4 O4             0.1468    -5.2280    -1.0361 O.2     
   5 O5            -0.4494    -3.1902     2.5504 O.2     
   6 O6             2.3872     0.0614     5.2853 O.3     
   7 N7            -0.5241    -2.2036     0.5622 N.am    
   8 N8            -2.2517    -4.2865     1.6950 N.pl3   
   9 N9             1.9194    -0.7420     0.5789 N.2     
  10 N10           -1.4585    -5.3683     2.0986 N.2     
  11 C11           -1.0190    -3.3579    -0.2022 C.3     
  12 C12           -0.1682    -1.7065    -1.7548 C.3     
  13 C13           -1.1387    -2.9145    -1.6755 C.3     
  14 C14           -0.3566    -1.0640    -0.3579 C.3     
  15 C15           -2.3905    -3.7828     0.3264 C.3     
  16 C16            1.2749    -2.1745    -1.9531 C.3     
  17 C17           -0.0457    -4.5029    -0.0890 C.2     
  18 C18            0.8616    -0.2606     0.0185 C.2     
  19 C19           -0.2711    -2.1882     1.8859 C.2     
  20 C20            0.2232    -0.9524     2.5297 C.ar    
  21 C21           -2.8699    -3.7940     2.7888 C.2     
  22 C22            1.0866    -1.0297     3.6226 C.ar    
  23 C23           -0.1678     0.2960     2.0424 C.ar    
  24 C24            2.6497     1.3653     0.4835 C.2     
  25 C25            2.8969     0.1019     0.8419 C.2     
  26 C26            2.7212    -3.2638    -3.5237 C.3     
  27 C27            1.1471     1.3690     3.7322 C.ar    
  28 C28           -2.4829    -4.5374     3.8512 C.2     
  29 C29            1.6482     2.6311     4.3857 C.3     
  30 C30            1.5459     0.1322     4.2202 C.ar    
  31 C31           -1.5938    -5.5145     3.3917 C.2     
  32 C32            0.2957     1.4472     2.6453 C.ar    
  33 C33            1.0641     3.8463     3.6626 C.3     
  34 C34            1.2137     2.6530     5.8526 C.3     
  35 C35            3.1754     2.6752     4.3055 C.3     
  36 C36            2.7561    -1.2439     5.7350 C.3     
  37 H37           -0.4659    -1.0174    -2.5452 H       
  38 H38           -0.8174    -3.7120    -2.3456 H       
  39 H39           -2.1587    -2.6053    -1.9036 H       
  40 H40           -1.2459    -0.4338    -0.3471 H       
  41 H41           -2.7979    -4.5681    -0.3103 H       
  42 H42           -3.0634    -2.9253     0.3213 H       
  43 H43            1.5328    -2.8957    -1.1775 H       
  44 H44            1.9464    -1.3182    -1.8907 H       
  45 H45            1.2214    -5.4637     1.0885 H       
  46 H46           -3.5511    -2.9562     2.8121 H       
  47 H47            1.3956    -1.9925     4.0017 H       
  48 H48           -0.8326     0.3607     1.1937 H       
  49 H49            3.3179     2.2042     0.6110 H       
  50 H50            3.8217    -0.2027     1.3092 H       
  51 H51            3.0091    -4.0076    -2.7807 H       
  52 H52            2.7363    -3.7161    -4.5153 H       
  53 H53            3.4227    -2.4301    -3.4939 H       
  54 H54           -2.8009    -4.3981     4.8738 H       
  55 H55           -1.1083    -6.2645     3.9985 H       
  56 H56           -0.0072     2.4124     2.2671 H       
  57 H57           -0.0239     3.8149     3.7198 H       
  58 H58            1.4265     4.7592     4.1353 H       
  59 H59            1.3736     3.8307     2.6176 H       
  60 H60            1.6298     1.7872     6.3678 H       
  61 H61            1.5761     3.5659     6.3253 H       
  62 H62            0.1257     2.6215     5.9098 H       
  63 H63            3.4849     2.6596     3.2605 H       
  64 H64            3.5378     3.5881     4.7782 H       
  65 H65            3.5915     1.8094     4.8206 H       
  66 H66            1.8619    -1.7923     6.0312 H       
  67 H67            3.2590    -1.7774     4.9285 H       
  68 H68            3.4287    -1.1576     6.5884 H       
@<TRIPOS>BOND
   1    1   18 1
   2    1   24 1
   3    2   16 1
   4    2   26 1
   5    3   17 1
   6    3   45 1
   7    4   17 2
   8    5   19 2
   9    6   30 1
  10    6   36 1
  11    7   11 1
  12    7   14 1
  13    7   19 am
  14    8   10 1
  15    8   15 1
  16    8   21 1
  17    9   18 2
  18    9   25 1
  19   10   31 2
  20   11   13 1
  21   11   15 1
  22   11   17 1
  23   12   13 1
  24   12   14 1
  25   12   16 1
  26   12   37 1
  27   13   38 1
  28   13   39 1
  29   14   18 1
  30   14   40 1
  31   15   41 1
  32   15   42 1
  33   16   43 1
  34   16   44 1
  35   19   20 1
  36   20   22 ar
  37   20   23 ar
  38   21   28 2
  39   21   46 1
  40   22   30 ar
  41   22   47 1
  42   23   32 ar
  43   23   48 1
  44   24   25 2
  45   24   49 1
  46   25   50 1
  47   26   51 1
  48   26   52 1
  49   26   53 1
  50   27   29 1
  51   27   30 ar
  52   27   32 ar
  53   28   31 1
  54   28   54 1
  55   29   33 1
  56   29   34 1
  57   29   35 1
  58   31   55 1
  59   32   56 1
  60   33   57 1
  61   33   58 1
  62   33   59 1
  63   34   60 1
  64   34   61 1
  65   34   62 1
  66   35   63 1
  67   35   64 1
  68   35   65 1
  69   36   66 1
  70   36   67 1
  71   36   68 1

#	End of record

