#	Name: ASD01410332
#	Creating user name:	WinNT
#	Creation time:	15. 06. 2019 19:17

#	Modifying user name:	WinNT
#	Modification time:	15. 06. 2019 19:17

#	Program:	/corina/corina34_cracker 3.40 0067  02.08.2006

@<TRIPOS>MOLECULE
ASD01410332
  65   69    0    0    0
SMALL
NO_CHARGES


@<TRIPOS>ATOM
   1 O1            -0.0161     1.3361     0.0094 O.3     
   2 C2             0.0021    -0.0041     0.0020 C.2     
   3 C3             1.2991    -0.4163    -0.0126 C.2     
   4 C4             2.1062     0.8106    -0.0137 C.2     
   5 C5             1.2316     1.8296     0.0001 C.2     
   6 N6             2.7985    -2.2896    -0.8291 N.pl3   
   7 C7             1.7928    -1.8099    -0.0248 C.2     
   8 C8             1.3241    -2.8159     0.7576 C.2     
   9 C9             2.0561    -3.9858     0.4442 C.ar    
  10 C10            2.9775    -3.6329    -0.5632 C.ar    
  11 C11            2.0127    -5.3035     0.9231 C.ar    
  12 C12            2.8625    -6.2394     0.4197 C.ar    
  13 C13            3.7866    -5.8962    -0.5791 C.ar    
  14 C14            3.8381    -4.5919    -1.0709 C.ar    
  15 C15           -0.9163    -3.6592     1.4044 C.3     
  16 C16           -2.0366    -3.5477     2.4405 C.3     
  17 C17           -1.4929    -3.9192     3.8215 C.3     
  18 C18           -0.3558    -2.9661     4.1952 C.3     
  19 C19            0.7644    -3.0776     3.1591 C.3     
  20 C20            0.2207    -2.7061     1.7781 C.3     
  21 C21            3.5523    -1.5064    -1.8113 C.3     
  22 C22            4.7666    -0.9067    -1.1504 C.2     
  23 O23            4.9813    -1.1131     0.0253 O.2     
  24 N24            5.6141    -0.1410    -1.8659 N.am    
  25 C25            6.8022     0.4506    -1.2356 C.3     
  26 C26            6.7973     1.9605    -1.4942 C.3     
  27 C27            6.6913     2.2159    -2.9994 C.3     
  28 C28            5.3789     1.6313    -3.5266 C.3     
  29 C29            5.3708     0.1131    -3.2924 C.3     
  30 C30            6.7205     3.6999    -3.2602 C.2     
  31 O31            6.8162     4.4737    -2.3371 O.2     
  32 O32            6.6402     4.1621    -4.5178 O.3     
  33 C33            4.7015    -6.9192    -1.1151 C.2     
  34 O34            5.5027    -6.6246    -1.9801 O.2     
  35 O35            4.6499    -8.1817    -0.6461 O.3     
  36 H36           -0.8653    -0.6476     0.0072 H       
  37 H37            3.1840     0.8794    -0.0236 H       
  38 H38            1.4908     2.8780     0.0027 H       
  39 H39            1.3045    -5.5753     1.6919 H       
  40 H40            2.8259    -7.2528     0.7915 H       
  41 H41            4.5497    -4.3298    -1.8399 H       
  42 H42           -0.5409    -4.6823     1.3838 H       
  43 H43           -1.3037    -3.3945     0.4205 H       
  44 H44           -2.4120    -2.5246     2.4610 H       
  45 H45           -2.8467    -4.2267     2.1742 H       
  46 H46           -2.2910    -3.8398     4.5596 H       
  47 H47           -1.1174    -4.9423     3.8009 H       
  48 H48           -0.7312    -1.9430     4.2157 H       
  49 H49            0.0316    -3.2308     5.1791 H       
  50 H50            1.5745    -2.3986     3.4254 H       
  51 H51            1.1399    -4.1007     3.1386 H       
  52 H52           -0.1547    -1.6830     1.7986 H       
  53 H53            3.8667    -2.1550    -2.6290 H       
  54 H54            2.9204    -0.7090    -2.2024 H       
  55 H55            6.7776     0.2637    -0.1621 H       
  56 H56            7.7016     0.0093    -1.6650 H       
  57 H57            5.9453     2.4137    -0.9875 H       
  58 H58            7.7211     2.3975    -1.1152 H       
  59 H59            7.5305     1.7415    -3.5082 H       
  60 H60            4.5402     2.0876    -3.0007 H       
  61 H61            5.2932     1.8340    -4.5942 H       
  62 H62            6.1535    -0.3532    -3.8908 H       
  63 H63            4.4002    -0.2950    -3.5746 H       
  64 H64            6.6630     5.1217    -4.6352 H       
  65 H65            5.2699    -8.8178    -1.0284 H       
@<TRIPOS>BOND
   1    1    2 1
   2    1    5 1
   3    2    3 2
   4    2   36 1
   5    3    4 1
   6    3    7 1
   7    4    5 2
   8    4   37 1
   9    5   38 1
  10    6    7 1
  11    6   21 1
  12    6   10 1
  13    7    8 2
  14    8    9 1
  15    8   20 1
  16    9   10 ar
  17    9   11 ar
  18   10   14 ar
  19   11   12 ar
  20   11   39 1
  21   12   13 ar
  22   12   40 1
  23   13   14 ar
  24   13   33 1
  25   14   41 1
  26   15   16 1
  27   15   20 1
  28   15   42 1
  29   15   43 1
  30   16   17 1
  31   16   44 1
  32   16   45 1
  33   17   18 1
  34   17   46 1
  35   17   47 1
  36   18   19 1
  37   18   48 1
  38   18   49 1
  39   19   20 1
  40   19   50 1
  41   19   51 1
  42   20   52 1
  43   21   22 1
  44   21   53 1
  45   21   54 1
  46   22   23 2
  47   22   24 am
  48   24   25 1
  49   24   29 1
  50   25   26 1
  51   25   55 1
  52   25   56 1
  53   26   27 1
  54   26   57 1
  55   26   58 1
  56   27   28 1
  57   27   30 1
  58   27   59 1
  59   28   29 1
  60   28   60 1
  61   28   61 1
  62   29   62 1
  63   29   63 1
  64   30   31 2
  65   30   32 1
  66   32   64 1
  67   33   34 2
  68   33   35 1
  69   35   65 1

#	End of record

