#	Name: ASD01201036
#	Creating user name:	WinNT
#	Creation time:	15. 06. 2019 19:09

#	Modifying user name:	WinNT
#	Modification time:	15. 06. 2019 19:09

#	Program:	/corina/corina34_cracker 3.40 0067  02.08.2006

@<TRIPOS>MOLECULE
ASD01201036
  57   61    0    0    0
SMALL
NO_CHARGES


@<TRIPOS>ATOM
   1 C1            -0.0194     1.3725    -0.0075 C.ar    
   2 C2             0.0019    -0.0107    -0.0149 C.ar    
   3 C3             1.2098    -0.6887    -0.0244 C.ar    
   4 C4             2.3919     0.0143    -0.0267 C.ar    
   5 C5             2.3820     1.4114    -0.0193 C.ar    
   6 C6             1.1608     2.0874    -0.0096 C.ar    
   7 C7             3.8416    -0.4018    -0.0361 C.3     
   8 N8             4.6250     0.8389    -0.0335 N.am    
   9 C9             3.7797     1.8839    -0.0238 C.2     
  10 O10            4.1183     3.0513    -0.0190 O.2     
  11 C11            6.0875     0.9245    -0.0403 C.3     
  12 S12            4.2188    -1.3803     1.4441 S.3     
  13 C13            3.6296    -3.0372     0.9990 C.3     
  14 C14            6.5819     0.9613    -1.4634 C.ar    
  15 C15            3.8762    -3.9830     2.1460 C.2     
  16 O16            4.3981    -3.5791     3.1635 O.2     
  17 N17            3.5169    -5.2777     2.0411 N.am    
  18 C18            3.8413    -6.1757     3.0569 C.ar    
  19 C19            6.7357     2.1727    -2.1007 C.ar    
  20 C20            7.1919     2.2094    -3.4145 C.ar    
  21 C21            7.4903     1.0034    -4.0743 C.ar    
  22 C22            7.3274    -0.2134    -3.4091 C.ar    
  23 C23            6.8832    -0.2259    -2.1171 C.ar    
  24 N24            4.5853    -5.7733     4.0748 N.ar    
  25 C25            4.9147    -6.5905     5.0568 C.ar    
  26 C26            4.4912    -7.9047     5.0565 C.ar    
  27 C27            3.7088    -8.3664     4.0066 C.ar    
  28 C28            3.3755    -7.4842     2.9942 C.ar    
  29 N29            7.4442     3.2313    -4.3021 N.pl3   
  30 C30            7.8879     2.7168    -5.4898 C.2     
  31 C31            7.9384     1.3773    -5.4179 C.2     
  32 C32            8.3739     0.4367    -6.5118 C.3     
  33 C33            8.2639     3.5331    -6.6996 C.3     
  34 H34           -0.9644     1.8954    -0.0046 H       
  35 H35           -0.9258    -0.5636    -0.0128 H       
  36 H36            1.2233    -1.7686    -0.0298 H       
  37 H37            1.1398     3.1672    -0.0042 H       
  38 H38            4.0594    -0.9804    -0.9338 H       
  39 H39            6.4008     1.8315     0.4767 H       
  40 H40            6.5048     0.0546     0.4669 H       
  41 H41            2.5618    -2.9975     0.7840 H       
  42 H42            4.1650    -3.3885     0.1169 H       
  43 H43            3.0325    -5.5847     1.2588 H       
  44 H44            6.5025     3.0911    -1.5823 H       
  45 H45            7.5556    -1.1411    -3.9127 H       
  46 H46            6.7577    -1.1673    -1.6030 H       
  47 H47            5.5238    -6.2269     5.8712 H       
  48 H48            4.7660    -8.5666     5.8644 H       
  49 H49            3.3648    -9.3898     3.9828 H       
  50 H50            2.7681    -7.8097     2.1626 H       
  51 H51            7.3248     4.1753    -4.1136 H       
  52 H52            9.4477     0.2649    -6.4371 H       
  53 H53            7.8462    -0.5113    -6.4073 H       
  54 H54            8.1429     0.8761    -7.4822 H       
  55 H55            9.3235     3.7845    -6.6533 H       
  56 H56            8.0665     2.9559    -7.6029 H       
  57 H57            7.6735     4.4492    -6.7175 H       
@<TRIPOS>BOND
   1    1    2 ar
   2    1    6 ar
   3    1   34 1
   4    2    3 ar
   5    2   35 1
   6    3    4 ar
   7    3   36 1
   8    4    5 ar
   9    4    7 1
  10    5    6 ar
  11    5    9 1
  12    6   37 1
  13    7    8 1
  14    7   12 1
  15    7   38 1
  16    8    9 am
  17    8   11 1
  18    9   10 2
  19   11   14 1
  20   11   39 1
  21   11   40 1
  22   12   13 1
  23   13   15 1
  24   13   41 1
  25   13   42 1
  26   14   19 ar
  27   14   23 ar
  28   15   16 2
  29   15   17 am
  30   17   18 1
  31   17   43 1
  32   18   24 ar
  33   18   28 ar
  34   19   20 ar
  35   19   44 1
  36   20   21 ar
  37   20   29 1
  38   21   22 ar
  39   21   31 1
  40   22   23 ar
  41   22   45 1
  42   23   46 1
  43   24   25 ar
  44   25   26 ar
  45   25   47 1
  46   26   27 ar
  47   26   48 1
  48   27   28 ar
  49   27   49 1
  50   28   50 1
  51   29   30 1
  52   29   51 1
  53   30   31 2
  54   30   33 1
  55   31   32 1
  56   32   52 1
  57   32   53 1
  58   32   54 1
  59   33   55 1
  60   33   56 1
  61   33   57 1

#	End of record

