#	Name: ASD04880046
#	Creating user name:	WinNT
#	Creation time:	15. 06. 2019 20:52

#	Modifying user name:	WinNT
#	Modification time:	15. 06. 2019 20:52

#	Program:	/corina/corina34_cracker 3.40 0067  02.08.2006

@<TRIPOS>MOLECULE
ASD04880046
  35   37    0    0    0
SMALL
NO_CHARGES


@<TRIPOS>ATOM
   1 C1            -0.0144     1.2118     0.0087 C.2     
   2 O2             0.0434    -0.0026     0.0315 O.2     
   3 N3             1.1186     1.9394    -0.0483 N.am    
   4 N4             1.1864     3.3238    -0.1910 N.2     
   5 C5             2.3864     3.7919    -0.2199 C.2     
   6 C6             3.3751     2.6558    -0.0856 C.3     
   7 C7             2.4860     1.4023     0.0364 C.3     
   8 C8             3.3860     7.8057    -0.6209 C.ar    
   9 N9             2.1079     7.4608    -0.6061 N.ar    
  10 C10            1.7475     6.1962    -0.4806 C.ar    
  11 C11            2.7411     5.2159    -0.3625 C.ar    
  12 C12            4.0806     5.6250    -0.3830 C.ar    
  13 N13            4.3552     6.9105    -0.5120 N.ar    
  14 O14            3.7118     9.1131    -0.7572 O.3     
  15 C15            5.1035     9.4372    -0.7677 C.3     
  16 C16           -1.3274     1.8897     0.0373 C.ar    
  17 C17           -2.5036     1.1434    -0.0542 C.ar    
  18 C18           -3.7275     1.7838    -0.0268 C.ar    
  19 C19           -3.7876     3.1635     0.0907 C.ar    
  20 C20           -2.6248     3.9067     0.1816 C.ar    
  21 C21           -1.3966     3.2782     0.1617 C.ar    
  22 F22           -4.8675     1.0641    -0.1152 F       
  23 H23            4.0095     2.5945    -0.9699 H       
  24 H24            3.9802     2.7796     0.8125 H       
  25 H25            2.6454     0.9085     0.9950 H       
  26 H26            2.6799     0.7152    -0.7872 H       
  27 H27            0.7029     5.9223    -0.4690 H       
  28 H28            4.8766     4.9004    -0.2943 H       
  29 H29            5.5893     8.9261    -1.5990 H       
  30 H30            5.2249    10.5143    -0.8826 H       
  31 H31            5.5579     9.1183     0.1703 H       
  32 H32           -2.4569     0.0684    -0.1465 H       
  33 H33           -4.7463     3.6603     0.1110 H       
  34 H34           -2.6783     4.9816     0.2727 H       
  35 H35           -0.4900     3.8602     0.2378 H       
@<TRIPOS>BOND
   1    1    2 2
   2    1    3 am
   3    1   16 1
   4    3    4 1
   5    3    7 1
   6    4    5 2
   7    5    6 1
   8    5   11 1
   9    6    7 1
  10    6   23 1
  11    6   24 1
  12    7   25 1
  13    7   26 1
  14    8    9 ar
  15    8   13 ar
  16    8   14 1
  17    9   10 ar
  18   10   11 ar
  19   10   27 1
  20   11   12 ar
  21   12   13 ar
  22   12   28 1
  23   14   15 1
  24   15   29 1
  25   15   30 1
  26   15   31 1
  27   16   17 ar
  28   16   21 ar
  29   17   18 ar
  30   17   32 1
  31   18   19 ar
  32   18   22 1
  33   19   20 ar
  34   19   33 1
  35   20   21 ar
  36   20   34 1
  37   21   35 1

#	End of record

