#	Name: ASD01917239
#	Creating user name:	WinNT
#	Creation time:	15. 06. 2019 20:08

#	Modifying user name:	WinNT
#	Modification time:	15. 06. 2019 20:08

#	Program:	/corina/corina34_cracker 3.40 0067  02.08.2006

@<TRIPOS>MOLECULE
ASD01917239
  40   43    0    0    0
SMALL
NO_CHARGES


@<TRIPOS>ATOM
   1 C1             0.0539     1.0569     0.4443 C.ar    
   2 C2             0.1169    -0.2942     0.7274 C.ar    
   3 C3             1.3573    -0.9018     0.8499 C.ar    
   4 C4             2.4925    -0.1239     0.6824 C.ar    
   5 C5             2.3512     1.2220     0.4007 C.ar    
   6 N6             1.1552     1.7662     0.2913 N.ar    
   7 C7             3.5783     2.0773     0.2171 C.3     
   8 O8             4.7482     1.2734     0.3815 O.3     
   9 C9             5.9495     1.8966     0.2467 C.2     
  10 N10            6.1252     3.1741    -0.0213 N.2     
  11 N11            7.4887     3.4301    -0.0872 N.pl3   
  12 C12            8.1487     2.2490     0.1682 C.2     
  13 C13            7.2049     1.2864     0.3759 C.2     
  14 C14            8.2099     4.6705    -0.3778 C.3     
  15 C15            9.5605     4.6477     0.3375 C.3     
  16 N16           10.2666     3.3835     0.1623 N.am    
  17 C17            9.6197     2.1939     0.1991 C.2     
  18 O18           10.2211     1.1380     0.2549 O.2     
  19 C19           11.6497     3.3999    -0.0500 C.ar    
  20 C20           12.5039     3.8143     0.9635 C.ar    
  21 C21           13.8686     3.8298     0.7519 C.ar    
  22 C22           14.3853     3.4326    -0.4699 C.ar    
  23 C23           13.5353     3.0195    -1.4821 C.ar    
  24 C24           12.1704     2.9966    -1.2726 C.ar    
  25 F25           15.7206     3.4485    -0.6749 F       
  26 H26           -0.9084     1.5367     0.3428 H       
  27 H27           -0.7886    -0.8695     0.8519 H       
  28 H28            1.4371    -1.9559     1.0710 H       
  29 H29            3.4748    -0.5638     0.7712 H       
  30 H30            3.5728     2.5106    -0.7831 H       
  31 H31            3.5789     2.8758     0.9590 H       
  32 H32            7.3905     0.2450     0.5936 H       
  33 H33            8.3687     4.7559    -1.4528 H       
  34 H34            7.6264     5.5216    -0.0267 H       
  35 H35           10.1802     5.4545    -0.0540 H       
  36 H36            9.3981     4.8159     1.4021 H       
  37 H37           12.1013     4.1244     1.9165 H       
  38 H38           14.5332     4.1523     1.5397 H       
  39 H39           13.9404     2.7105    -2.4344 H       
  40 H40           11.5079     2.6744    -2.0623 H       
@<TRIPOS>BOND
   1    1    2 ar
   2    1    6 ar
   3    1   26 1
   4    2    3 ar
   5    2   27 1
   6    3    4 ar
   7    3   28 1
   8    4    5 ar
   9    4   29 1
  10    5    6 ar
  11    5    7 1
  12    7    8 1
  13    7   30 1
  14    7   31 1
  15    8    9 1
  16    9   10 2
  17    9   13 1
  18   10   11 1
  19   11   12 1
  20   11   14 1
  21   12   13 2
  22   12   17 1
  23   13   32 1
  24   14   15 1
  25   14   33 1
  26   14   34 1
  27   15   16 1
  28   15   35 1
  29   15   36 1
  30   16   17 am
  31   16   19 1
  32   17   18 2
  33   19   20 ar
  34   19   24 ar
  35   20   21 ar
  36   20   37 1
  37   21   22 ar
  38   21   38 1
  39   22   23 ar
  40   22   25 1
  41   23   24 ar
  42   23   39 1
  43   24   40 1

#	End of record

