#	Name: ASD05313187
#	Creating user name:	WinNT
#	Creation time:	15. 06. 2019 20:58

#	Modifying user name:	WinNT
#	Modification time:	15. 06. 2019 20:58

#	Program:	/corina/corina34_cracker 3.40 0067  02.08.2006

@<TRIPOS>MOLECULE
ASD05313187
  35   38    0    0    0
SMALL
NO_CHARGES


@<TRIPOS>ATOM
   1 C1            -0.0740     0.8212     1.0152 C.2     
   2 C2             0.1120    -0.6159     0.5906 C.3     
   3 N3             0.9373     1.7383     1.0413 N.pl3   
   4 N4             1.4563    -0.7158    -0.0088 N.am    
   5 C5             2.5709    -0.0366     0.6687 C.3     
   6 C6             2.3233     1.4767     0.6582 C.3     
   7 N7            -0.9009     2.6485     1.6937 N.2     
   8 N8            -1.1556     1.4164     1.4145 N.2     
   9 C9             0.3776     2.8996     1.4826 C.2     
  10 S10            2.8100     4.4279     1.7673 S.3     
  11 C11            2.5755     6.1043     2.0065 C.2     
  12 N12            1.3148     6.3857     2.0158 N.2     
  13 C13            0.4739     5.3907     1.8492 C.2     
  14 C14            1.0665     4.1851     1.6879 C.2     
  15 C15            1.6573    -1.4102    -1.1463 C.2     
  16 O16            2.7498    -1.4003    -1.6795 O.2     
  17 C17            0.5502    -2.1833    -1.7451 C.ar    
  18 C18            0.3192    -2.1262    -3.1221 C.ar    
  19 C19           -0.7187    -2.8530    -3.6756 C.ar    
  20 C20           -1.5278    -3.6356    -2.8661 C.ar    
  21 C21           -1.3017    -3.6941    -1.5010 C.ar    
  22 C22           -0.2659    -2.9787    -0.9383 C.ar    
  23 F23           -0.9449    -2.8001    -5.0064 F       
  24 Cl24          -2.8298    -4.5456    -3.5665 Cl      
  25 Cl25           1.3319    -1.1451    -4.1348 Cl      
  26 H26            0.0415    -1.2723     1.4579 H       
  27 H27           -0.6447    -0.8875    -0.1454 H       
  28 H28            2.6386    -0.3870     1.6986 H       
  29 H29            3.5023    -0.2566     0.1469 H       
  30 H30            2.5048     1.8685    -0.3427 H       
  31 H31            2.9948     1.9608     1.3673 H       
  32 H32            3.3691     6.8259     2.1323 H       
  33 H33           -0.5979     5.5233     1.8419 H       
  34 H34           -1.9360    -4.3051    -0.8759 H       
  35 H35           -0.0892    -3.0296     0.1259 H       
@<TRIPOS>BOND
   1    1    2 1
   2    1    3 1
   3    1    8 2
   4    2    4 1
   5    2   26 1
   6    2   27 1
   7    3    6 1
   8    3    9 1
   9    4    5 1
  10    4   15 am
  11    5    6 1
  12    5   28 1
  13    5   29 1
  14    6   30 1
  15    6   31 1
  16    7    8 1
  17    7    9 2
  18    9   14 1
  19   10   11 1
  20   10   14 1
  21   11   12 2
  22   11   32 1
  23   12   13 1
  24   13   14 2
  25   13   33 1
  26   15   16 2
  27   15   17 1
  28   17   18 ar
  29   17   22 ar
  30   18   19 ar
  31   18   25 1
  32   19   20 ar
  33   19   23 1
  34   20   21 ar
  35   20   24 1
  36   21   22 ar
  37   21   34 1
  38   22   35 1

#	End of record

