#	Name: ASD08820004
#	Creating user name:	WinNT
#	Creation time:	15. 06. 2019 21:19

#	Modifying user name:	WinNT
#	Modification time:	15. 06. 2019 21:19

#	Program:	/corina/corina34_cracker 3.40 0067  02.08.2006

@<TRIPOS>MOLECULE
ASD08820004
  45   47    0    0    0
SMALL
NO_CHARGES


@<TRIPOS>ATOM
   1 N1            -0.8390     0.7599     2.4399 N.am    
   2 C2            -0.6457    -0.4637     1.9091 C.2     
   3 O3             0.2993    -1.1396     2.2677 O.2     
   4 N4            -1.4999    -0.9382     0.9808 N.am    
   5 C5            -1.2985    -2.2126     0.4279 C.2     
   6 C6            -0.2998    -3.0875     0.7182 C.2     
   7 N7            -0.5000    -4.1915    -0.0523 N.pl3   
   8 N8            -1.5463    -4.0387    -0.7816 N.2     
   9 C9            -2.0985    -2.8626    -0.5479 C.2     
  10 C10           -3.3119    -2.3220    -1.1876 C.2     
  11 O11           -3.7200    -1.2180    -0.8818 O.2     
  12 N12           -3.9689    -3.0513    -2.1111 N.am    
  13 C13            0.3154    -5.3273    -0.0505 C.ar    
  14 C14            1.6826    -5.2014    -0.1636 C.ar    
  15 C15            2.5033    -6.3259    -0.1635 C.ar    
  16 C16            1.9802    -7.5778    -0.0520 C.ar    
  17 C17            0.5903    -7.7499     0.0659 C.ar    
  18 C18           -0.2546    -6.6128     0.0728 C.ar    
  19 C19           -1.6419    -6.7843     0.1920 C.ar    
  20 C20           -2.1601    -8.0439     0.2997 C.ar    
  21 C21           -1.3251    -9.1653     0.2931 C.ar    
  22 C22            0.0238    -9.0315     0.1828 C.ar    
  23 O23           -3.5041    -8.2089     0.4150 O.3     
  24 C24           -3.9968    -9.5501     0.3995 C.3     
  25 C25           -3.9220   -10.1373     1.8104 C.3     
  26 C26           -5.4504    -9.5540    -0.0781 C.3     
  27 H27           -0.2242     1.1014     3.1080 H       
  28 H28           -1.5906     1.3008     2.1509 H       
  29 H29           -2.2537    -0.3990     0.6947 H       
  30 H30            0.5016    -2.9353     1.4260 H       
  31 H31           -3.6434    -3.9319    -2.3550 H       
  32 H32           -4.7672    -2.6956    -2.5319 H       
  33 H33            2.1226    -4.2192    -0.2537 H       
  34 H34            3.5725    -6.2030    -0.2536 H       
  35 H35            2.6329    -8.4382    -0.0546 H       
  36 H36           -2.2966    -5.9254     0.1989 H       
  37 H37           -1.7571   -10.1514     0.3802 H       
  38 H38            0.6568    -9.9065     0.1791 H       
  39 H39           -3.3904   -10.1522    -0.2772 H       
  40 H40           -4.2978   -11.1604     1.7986 H       
  41 H41           -2.8864   -10.1345     2.1506 H       
  42 H42           -4.5284    -9.5352     2.4871 H       
  43 H43           -5.5037    -9.1357    -1.0832 H       
  44 H44           -5.8262   -10.5771    -0.0899 H       
  45 H45           -6.0567    -8.9519     0.5987 H       
@<TRIPOS>BOND
   1    1    2 am
   2    1   27 1
   3    1   28 1
   4    2    3 2
   5    2    4 am
   6    4    5 1
   7    4   29 1
   8    5    6 2
   9    5    9 1
  10    6    7 1
  11    6   30 1
  12    7    8 1
  13    7   13 1
  14    8    9 2
  15    9   10 1
  16   10   11 2
  17   10   12 am
  18   12   31 1
  19   12   32 1
  20   13   14 ar
  21   13   18 ar
  22   14   15 ar
  23   14   33 1
  24   15   16 ar
  25   15   34 1
  26   16   17 ar
  27   16   35 1
  28   17   18 ar
  29   17   22 ar
  30   18   19 ar
  31   19   20 ar
  32   19   36 1
  33   20   21 ar
  34   20   23 1
  35   21   22 ar
  36   21   37 1
  37   22   38 1
  38   23   24 1
  39   24   25 1
  40   24   26 1
  41   24   39 1
  42   25   40 1
  43   25   41 1
  44   25   42 1
  45   26   43 1
  46   26   44 1
  47   26   45 1

#	End of record

