#	Name: ASD01840495
#	Creating user name:	WinNT
#	Creation time:	15. 06. 2019 19:37

#	Modifying user name:	WinNT
#	Modification time:	15. 06. 2019 19:37

#	Program:	/corina/corina34_cracker 3.40 0067  02.08.2006

@<TRIPOS>MOLECULE
ASD01840495
  45   48    0    0    0
SMALL
NO_CHARGES


@<TRIPOS>ATOM
   1 C1            -0.1887     1.6488    -0.0359 C.3     
   2 C2            -0.1288     0.1200    -0.0492 C.3     
   3 H3            -1.1286    -0.2902     0.0932 H       
   4 N4             0.4228    -0.3454    -1.3268 N.am    
   5 C5             1.6439    -1.0958    -1.0131 C.3     
   6 C6             1.8216    -1.0759     0.4824 C.ar    
   7 N7             2.7499    -1.5975     1.2733 N.ar    
   8 C8             2.6898    -1.4430     2.5809 C.ar    
   9 C9             3.7671    -2.0535     3.4398 C.3     
  10 N10            1.7157    -0.7701     3.1590 N.ar    
  11 C11            0.7481    -0.2178     2.4315 C.ar    
  12 N12           -0.2759     0.4897     3.0400 N.3     
  13 C13            0.2518     1.6485     3.7841 C.3     
  14 C14           -0.7441     1.3129     4.9031 C.3     
  15 C15           -0.6339    -0.1105     4.3387 C.3     
  16 C16            0.7823    -0.3645     1.0458 C.ar    
  17 C17           -0.0931    -0.1261    -2.5525 C.2     
  18 O18           -1.1658     0.4326    -2.6690 O.2     
  19 C19            0.6477    -0.5663    -3.7576 C.ar    
  20 C20            0.2088    -0.2169    -5.0381 C.ar    
  21 C21            0.9301    -0.6490    -6.1345 C.ar    
  22 N22            2.0166    -1.3799    -5.9846 N.ar    
  23 C23            2.4646    -1.7314    -4.7956 C.ar    
  24 C24            3.7136    -2.5680    -4.6895 C.3     
  25 C25            1.8084    -1.3380    -3.6456 C.ar    
  26 H26            0.8216     2.0525    -0.1026 H       
  27 H27           -0.7758     1.9968    -0.8858 H       
  28 H28           -0.6545     1.9861     0.8900 H       
  29 H29            1.5448    -2.1245    -1.3597 H       
  30 H30            2.5012    -0.6241    -1.4933 H       
  31 H31            4.5777    -1.3365     3.5701 H       
  32 H32            3.3518    -2.3133     4.4135 H       
  33 H33            4.1510    -2.9522     2.9570 H       
  34 H34            1.2941     1.5350     4.0821 H       
  35 H35            0.0532     2.6037     3.2981 H       
  36 H36           -0.3401     1.4266     5.9091 H       
  37 H37           -1.7265     1.7680     4.7776 H       
  38 H38           -1.5832    -0.6459     4.3227 H       
  39 H39            0.1720    -0.6933     4.7846 H       
  40 H40           -0.6807     0.3815    -5.1683 H       
  41 H41            0.5990    -0.3845    -7.1279 H       
  42 H42            4.5840    -1.9151    -4.6258 H       
  43 H43            3.6596    -3.1898    -3.7959 H       
  44 H44            3.8005    -3.2044    -5.5702 H       
  45 H45            2.1838    -1.6258    -2.6747 H       
@<TRIPOS>BOND
   1    1    2 1
   2    1   26 1
   3    1   27 1
   4    1   28 1
   5    2    3 1
   6    2   16 1
   7    2    4 1
   8    4    5 1
   9    4   17 am
  10    5    6 1
  11    5   29 1
  12    5   30 1
  13    6   16 ar
  14    6    7 ar
  15    7    8 ar
  16    8    9 1
  17    8   10 ar
  18    9   31 1
  19    9   32 1
  20    9   33 1
  21   10   11 ar
  22   11   12 1
  23   11   16 ar
  24   12   15 1
  25   12   13 1
  26   13   14 1
  27   13   34 1
  28   13   35 1
  29   14   15 1
  30   14   36 1
  31   14   37 1
  32   15   38 1
  33   15   39 1
  34   17   18 2
  35   17   19 1
  36   19   25 ar
  37   19   20 ar
  38   20   21 ar
  39   20   40 1
  40   21   22 ar
  41   21   41 1
  42   22   23 ar
  43   23   24 1
  44   23   25 ar
  45   24   42 1
  46   24   43 1
  47   24   44 1
  48   25   45 1

#	End of record

