#	Name: ASD01200349
#	Creating user name:	WinNT
#	Creation time:	15. 06. 2019 19:09

#	Modifying user name:	WinNT
#	Modification time:	15. 06. 2019 19:09

#	Program:	/corina/corina34_cracker 3.40 0067  02.08.2006

@<TRIPOS>MOLECULE
ASD01200349
  50   53    0    0    0
SMALL
NO_CHARGES


@<TRIPOS>ATOM
   1 C1            -0.0166     1.3746     0.0096 C.ar    
   2 C2             0.0021    -0.0041     0.0020 C.ar    
   3 C3             1.2227    -0.6829    -0.0133 C.ar    
   4 C4             2.4175     0.0419    -0.0209 C.ar    
   5 C5             2.3831     1.4228    -0.0131 C.ar    
   6 C6             1.1704     2.0869     0.0021 C.ar    
   7 C7             1.1406     3.5936     0.0100 C.3     
   8 C8             1.8634     4.1114     1.2552 C.3     
   9 C9             1.8295     4.1161    -1.2243 C.2     
  10 C10            1.7260     5.6335     1.3286 C.3     
  11 C11            0.4299     7.4414     2.2817 C.3     
  12 C12            0.2668     6.0305     1.6638 C.3     
  13 C13            2.5505     6.1938     2.5060 C.3     
  14 C14            1.7264     7.3433     3.1119 C.3     
  15 C15            1.2106     4.4622    -2.3640 C.2     
  16 N16            3.1787     4.3138    -1.3475 N.pl3   
  17 C17            2.2497     4.9125    -3.2917 C.ar    
  18 C18            2.2458     5.3888    -4.6045 C.ar    
  19 C19            3.4709     4.7986    -2.5997 C.ar    
  20 N20            4.6031     5.1431    -3.1985 N.ar    
  21 C21            4.6218     5.5915    -4.4358 C.ar    
  22 C22            3.4578     5.7287    -5.1760 C.ar    
  23 Cl23           3.9407    -0.7908    -0.0394 Cl      
  24 C24            1.2505    -2.1591    -0.0210 C.2     
  25 O25            0.0967    -2.8546    -0.0133 O.3     
  26 O26            2.3137    -2.7465    -0.0344 O.2     
  27 C27            0.1999    -4.3029    -0.0216 C.3     
  28 H28           -0.9600     1.9003     0.0169 H       
  29 H29           -0.9251    -0.5579     0.0083 H       
  30 H30            3.3053     1.9849    -0.0186 H       
  31 H31            0.1061     3.9366     0.0215 H       
  32 H32            1.4209     3.6633     2.1448 H       
  33 H33            2.9187     3.8441     1.2003 H       
  34 H34            2.0417     6.0898     0.3905 H       
  35 H35            0.5347     8.1914     1.4978 H       
  36 H36           -0.4182     7.6765     2.9250 H       
  37 H37           -0.3395     6.0728     0.7590 H       
  38 H38           -0.1650     5.3393     2.3876 H       
  39 H39            2.7117     5.4161     3.2524 H       
  40 H40            3.5078     6.5703     2.1456 H       
  41 H41            2.2838     8.2777     3.0457 H       
  42 H42            1.4877     7.1234     4.1525 H       
  43 H43            0.1494     4.4171    -2.5592 H       
  44 H44            3.8323     4.1375    -0.6528 H       
  45 H45            1.3233     5.4882    -5.1571 H       
  46 H46            5.5665     5.8610    -4.8844 H       
  47 H47            3.4971     6.1006    -6.1892 H       
  48 H48            0.7296    -4.6242    -0.9184 H       
  49 H49            0.7470    -4.6332     0.8615 H       
  50 H50           -0.7992    -4.7384    -0.0140 H       
@<TRIPOS>BOND
   1    1    2 ar
   2    1    6 ar
   3    1   28 1
   4    2    3 ar
   5    2   29 1
   6    3    4 ar
   7    3   24 1
   8    4    5 ar
   9    4   23 1
  10    5    6 ar
  11    5   30 1
  12    6    7 1
  13    7    8 1
  14    7    9 1
  15    7   31 1
  16    8   10 1
  17    8   32 1
  18    8   33 1
  19    9   16 1
  20    9   15 2
  21   10   13 1
  22   10   12 1
  23   10   34 1
  24   11   12 1
  25   11   14 1
  26   11   35 1
  27   11   36 1
  28   12   37 1
  29   12   38 1
  30   13   14 1
  31   13   39 1
  32   13   40 1
  33   14   41 1
  34   14   42 1
  35   15   17 1
  36   15   43 1
  37   16   19 1
  38   16   44 1
  39   17   19 ar
  40   17   18 ar
  41   18   22 ar
  42   18   45 1
  43   19   20 ar
  44   20   21 ar
  45   21   22 ar
  46   21   46 1
  47   22   47 1
  48   24   25 1
  49   24   26 2
  50   25   27 1
  51   27   48 1
  52   27   49 1
  53   27   50 1

#	End of record

