#	Name: ASD01890390
#	Creating user name:	WinNT
#	Creation time:	15. 06. 2019 19:50

#	Modifying user name:	WinNT
#	Modification time:	15. 06. 2019 19:50

#	Program:	/corina/corina34_cracker 3.40 0067  02.08.2006

@<TRIPOS>MOLECULE
ASD01890390
  39   41    0    0    0
SMALL
NO_CHARGES


@<TRIPOS>ATOM
   1 C1            -0.6173    -0.3034    -1.3621 C.2     
   2 C2             0.0482     0.0776    -0.0647 C.3     
   3 C3             1.4141    -0.6056     0.0277 C.3     
   4 C4             2.1534    -0.1015     1.2687 C.3     
   5 O5            -0.0158    -0.9584    -2.1800 O.2     
   6 O6            -1.8801     0.0803    -1.6066 O.3     
   7 C7             1.2240    -2.0972     0.1275 C.ar    
   8 C8             1.7637    -2.9285    -0.8363 C.ar    
   9 C9             1.5897    -4.2966    -0.7453 C.ar    
  10 C10            0.8752    -4.8341     0.3105 C.ar    
  11 C11            0.3353    -4.0017     1.2747 C.ar    
  12 C12            0.5148    -2.6341     1.1857 C.ar    
  13 Cl13           0.6557    -6.5524     0.4251 Cl      
  14 S14            3.8359     1.9689     0.2892 S.3     
  15 C15            2.4657     1.3639     1.1068 C.2     
  16 N16            1.7366     2.3099     1.5651 N.2     
  17 C17            2.1383     3.5764     1.3455 C.ar    
  18 C18            3.3355     3.6239     0.6223 C.ar    
  19 C19            1.5369     4.7911     1.7315 C.ar    
  20 C20            2.1136     5.9809     1.4041 C.ar    
  21 C21            3.3004     6.0210     0.6865 C.ar    
  22 C22            3.9109     4.8500     0.2968 C.ar    
  23 C23            1.4545     7.2688     1.8258 C.3     
  24 F24            1.9331     7.6471     3.0848 F       
  25 F25            1.7495     8.2703     0.8946 F       
  26 F26            0.0692     7.0847     1.8895 F       
  27 H27            0.1795     1.1590    -0.0276 H       
  28 H28           -0.5750    -0.2417     0.7707 H       
  29 H29            1.9979    -0.3725    -0.8628 H       
  30 H30            1.5260    -0.2443     2.1485 H       
  31 H31            3.0819    -0.6596     1.3901 H       
  32 H32           -2.2644    -0.1879    -2.4525 H       
  33 H33            2.3210    -2.5088    -1.6606 H       
  34 H34            2.0110    -4.9459    -1.4985 H       
  35 H35           -0.2225    -4.4207     2.0992 H       
  36 H36            0.0972    -1.9845     1.9407 H       
  37 H37            0.6128     4.7785     2.2902 H       
  38 H38            3.7458     6.9718     0.4333 H       
  39 H39            4.8351     4.8820    -0.2612 H       
@<TRIPOS>BOND
   1    1    2 1
   2    1    5 2
   3    1    6 1
   4    2    3 1
   5    2   27 1
   6    2   28 1
   7    3    4 1
   8    3    7 1
   9    3   29 1
  10    4   15 1
  11    4   30 1
  12    4   31 1
  13    6   32 1
  14    7    8 ar
  15    7   12 ar
  16    8    9 ar
  17    8   33 1
  18    9   10 ar
  19    9   34 1
  20   10   11 ar
  21   10   13 1
  22   11   12 ar
  23   11   35 1
  24   12   36 1
  25   14   15 1
  26   14   18 1
  27   15   16 2
  28   16   17 1
  29   17   18 ar
  30   17   19 ar
  31   18   22 ar
  32   19   20 ar
  33   19   37 1
  34   20   21 ar
  35   20   23 1
  36   21   22 ar
  37   21   38 1
  38   22   39 1
  39   23   24 1
  40   23   25 1
  41   23   26 1

#	End of record

