#	Name: ASD01948256
#	Creating user name:	WinNT
#	Creation time:	15. 06. 2019 20:14

#	Modifying user name:	WinNT
#	Modification time:	15. 06. 2019 20:14

#	Program:	/corina/corina34_cracker 3.40 0067  02.08.2006

@<TRIPOS>MOLECULE
ASD01948256
  28   30    0    0    0
SMALL
NO_CHARGES


@<TRIPOS>ATOM
   1 C1             0.7299    -0.0183     0.8742 C.ar    
   2 C2             0.0201    -0.0143    -0.3138 C.ar    
   3 C3             0.4921     0.6958    -1.4026 C.ar    
   4 C4             1.6745     1.4046    -1.3082 C.ar    
   5 C5             2.3899     1.4040    -0.1185 C.ar    
   6 C6             1.9134     0.6886     0.9756 C.ar    
   7 C7             4.8802     0.0981    -0.3107 C.ar    
   8 C8             4.8050     1.4377     0.0710 C.ar    
   9 N9             3.5872     2.1202    -0.0203 N.pl3   
  10 C10            6.0758    -0.5834    -0.2245 C.ar    
  11 C11            7.2168     0.0730     0.2478 C.ar    
  12 C12            7.1377     1.4199     0.6312 C.ar    
  13 C13            5.9302     2.0954     0.5404 C.ar    
  14 I14           -1.7732    -1.0869    -0.4634 I       
  15 F15            6.1446    -1.8809    -0.5947 F       
  16 F16            2.6060     0.6855     2.1356 F       
  17 F17            3.7756    -0.5358    -0.7615 F       
  18 O18            8.3784     1.7709     1.0364 O.3     
  19 C19            9.1787     0.6996     0.9099 C.2     
  20 N20            8.5079    -0.3109     0.4460 N.2     
  21 N21            5.8438     3.5171     0.9439 N.pl3   
  22 O22            6.0468     4.3959     0.1253 O.2     
  23 O23            5.5698     3.8081     2.0945 O.2     
  24 H24            0.3565    -0.5705     1.7239 H       
  25 H25           -0.0641     0.6960    -2.3283 H       
  26 H26            2.0421     1.9583    -2.1595 H       
  27 H27            3.5732     3.0900    -0.0154 H       
  28 H28           10.2296     0.6813     1.1582 H       
@<TRIPOS>BOND
   1    1    2 ar
   2    1    6 ar
   3    1   24 1
   4    2    3 ar
   5    2   14 1
   6    3    4 ar
   7    3   25 1
   8    4    5 ar
   9    4   26 1
  10    5    6 ar
  11    5    9 1
  12    6   16 1
  13    7    8 ar
  14    7   10 ar
  15    7   17 1
  16    8    9 1
  17    8   13 ar
  18    9   27 1
  19   10   11 ar
  20   10   15 1
  21   11   12 ar
  22   11   20 1
  23   12   13 ar
  24   12   18 1
  25   13   21 1
  26   18   19 1
  27   19   20 2
  28   19   28 1
  29   21   22 2
  30   21   23 2

#	End of record

