#	Name: ASD07301344
#	Creating user name:	WinNT
#	Creation time:	15. 06. 2019 21:11

#	Modifying user name:	WinNT
#	Modification time:	15. 06. 2019 21:11

#	Program:	/corina/corina34_cracker 3.40 0067  02.08.2006

@<TRIPOS>MOLECULE
ASD07301344
  36   37    0    0    0
SMALL
NO_CHARGES


@<TRIPOS>ATOM
   1 C1            -0.0169     1.4661     0.0588 C.2     
   2 C2             0.0021    -0.0041     0.0009 C.2     
   3 C3             1.2716    -0.6339    -0.0636 C.2     
   4 C4             2.3707     0.1578    -0.0675 C.2     
   5 N5             2.2550     1.5070    -0.0109 N.pl3   
   6 N6             1.1280     2.1149     0.0479 N.2     
   7 O7            -1.0314    -0.6547     0.0087 O.2     
   8 C8             3.4243     2.2747    -0.0170 C.ar    
   9 C9             4.6635     1.6548     0.0730 C.ar    
  10 C10            5.8195     2.4189     0.0661 C.ar    
  11 C11            5.7364     3.8012    -0.0307 C.ar    
  12 C12            4.5024     4.4165    -0.1202 C.ar    
  13 C13            3.3476     3.6582    -0.1190 C.ar    
  14 O14            7.0339     1.8153     0.1546 O.3     
  15 C15           -1.2982     2.2007     0.1217 C.2     
  16 C16           -1.3010     3.6122     0.1768 C.2     
  17 C17           -2.4729     4.2841     0.2344 C.2     
  18 O18           -2.3517     1.5887     0.1261 O.2     
  19 N19           -2.4757     5.6483     0.2876 N.pl3   
  20 C20           -1.2090     6.3842     0.2824 C.3     
  21 C21           -3.7455     6.3763     0.3500 C.3     
  22 H22            1.3589    -1.7094    -0.1079 H       
  23 H23            3.3515    -0.2917    -0.1160 H       
  24 H24            4.7262     0.5793     0.1486 H       
  25 H25            6.6375     4.3965    -0.0356 H       
  26 H26            4.4407     5.4921    -0.1954 H       
  27 H27            2.3846     4.1413    -0.1936 H       
  28 H28            7.4197     1.5808    -0.7005 H       
  29 H29           -0.3672     4.1547     0.1729 H       
  30 H30           -3.4068     3.7416     0.2382 H       
  31 H31           -0.9223     6.6067    -0.7454 H       
  32 H32           -1.3275     7.3154     0.8363 H       
  33 H33           -0.4347     5.7779     0.7524 H       
  34 H34           -4.0329     6.5169     1.3920 H       
  35 H35           -3.6309     7.3484    -0.1296 H       
  36 H36           -4.5174     5.8054    -0.1660 H       
@<TRIPOS>BOND
   1    1    2 1
   2    1    6 2
   3    1   15 1
   4    2    3 1
   5    2    7 2
   6    3    4 2
   7    3   22 1
   8    4    5 1
   9    4   23 1
  10    5    6 1
  11    5    8 1
  12    8    9 ar
  13    8   13 ar
  14    9   10 ar
  15    9   24 1
  16   10   11 ar
  17   10   14 1
  18   11   12 ar
  19   11   25 1
  20   12   13 ar
  21   12   26 1
  22   13   27 1
  23   14   28 1
  24   15   16 1
  25   15   18 2
  26   16   17 2
  27   16   29 1
  28   17   19 1
  29   17   30 1
  30   19   20 1
  31   19   21 1
  32   20   31 1
  33   20   32 1
  34   20   33 1
  35   21   34 1
  36   21   35 1
  37   21   36 1

#	End of record

