#	Name: ASD01811154
#	Creating user name:	WinNT
#	Creation time:	15. 06. 2019 19:26

#	Modifying user name:	WinNT
#	Modification time:	15. 06. 2019 19:26

#	Program:	/corina/corina34_cracker 3.40 0067  02.08.2006

@<TRIPOS>MOLECULE
ASD01811154
  68   72    0    0    0
SMALL
NO_CHARGES


@<TRIPOS>ATOM
   1 C1            -7.3212     2.2130    -4.0017 C.1     
   2 C2            -6.3437     3.0073    -3.3203 C.ar    
   3 C3            -5.1728     2.4181    -2.8393 C.ar    
   4 C4            -4.2354     3.1891    -2.1837 C.ar    
   5 C5            -4.4536     4.5433    -2.0020 C.ar    
   6 C6            -5.6119     5.1336    -2.4757 C.ar    
   7 C7            -6.5546     4.3757    -3.1390 C.ar    
   8 N8            -8.0966     1.5829    -4.5422 N.1     
   9 N9            -2.4098     7.7982    -0.2276 N.am    
  10 C10           -1.8545     7.3097    -1.4971 C.3     
  11 C11           -2.9245     6.4837    -2.2179 C.3     
  12 C12           -3.4252     5.3791    -1.2845 C.3     
  13 C13           -4.0571     6.0077    -0.0404 C.3     
  14 C14           -2.9999     6.8284     0.7051 C.3     
  15 C15           -2.3735     9.1104     0.0781 C.2     
  16 C16           -3.0191     9.5994     1.3152 C.ar    
  17 C17           -3.9802    10.6109     1.2505 C.ar    
  18 C18           -4.5835    11.0690     2.4046 C.ar    
  19 C19           -4.2418    10.5314     3.6300 C.ar    
  20 C20           -3.2828     9.5194     3.7090 C.ar    
  21 C21           -2.6742     9.0485     2.5474 C.ar    
  22 O22           -1.8101     9.8917    -0.6632 O.2     
  23 N23           -2.8704     8.5862     7.1179 N.2     
  24 N24           -3.4123     9.2888     6.1882 N.2     
  25 C25           -2.9178     8.9453     5.0219 C.2     
  26 N26           -1.9963     7.9503     5.2515 N.pl3   
  27 C27           -1.9971     7.7516     6.6016 C.2     
  28 O28            0.7226     6.0489     9.1633 O.3     
  29 C29           -0.6613     5.8488     9.4638 C.3     
  30 C30           -1.4937     6.9109     8.7406 C.3     
  31 N31           -1.2216     6.8405     7.2976 N.3     
  32 C32            0.2080     7.0496     7.0262 C.3     
  33 C33            1.0234     5.9862     7.7666 C.3     
  34 C34           -4.9049    11.0384     4.8847 C.3     
  35 C35           -4.3591    11.2038    -0.0822 C.3     
  36 C36           -5.3456    10.2744    -0.7920 C.3     
  37 H37           -5.0015     1.3610    -2.9798 H       
  38 H38           -3.3293     2.7347    -1.8111 H       
  39 H39           -5.7761     6.1911    -2.3302 H       
  40 H40           -7.4561     4.8385    -3.5125 H       
  41 H41           -1.5658     8.1566    -2.1196 H       
  42 H42           -0.9832     6.6856    -1.2987 H       
  43 H43           -3.7570     7.1300    -2.4961 H       
  44 H44           -2.4957     6.0358    -3.1144 H       
  45 H45           -2.5879     4.7480    -0.9868 H       
  46 H46           -4.8788     6.6586    -0.3391 H       
  47 H47           -4.4344     5.2211     0.6130 H       
  48 H48           -2.2220     6.1650     1.0831 H       
  49 H49           -3.4669     7.3577     1.5356 H       
  50 H50           -5.3258    11.8515     2.3491 H       
  51 H51           -1.9349     8.2631     2.6026 H       
  52 H52           -1.4583     7.4862     4.5911 H       
  53 H53           -0.9666     4.8573     9.1296 H       
  54 H54           -0.8163     5.9349    10.5392 H       
  55 H55           -2.5530     6.7278     8.9206 H       
  56 H56           -1.2259     7.8994     9.1137 H       
  57 H57            0.3909     6.9679     5.9548 H       
  58 H58            0.5030     8.0404     7.3719 H       
  59 H59            2.0867     6.1716     7.6146 H       
  60 H60            0.7670     4.9986     7.3830 H       
  61 H61           -5.8031    10.4534     5.0828 H       
  62 H62           -4.2162    10.9422     5.7240 H       
  63 H63           -5.1752    12.0863     4.7548 H       
  64 H64           -4.8242    12.1775     0.0724 H       
  65 H65           -3.4653    11.3212    -0.6949 H       
  66 H66           -5.6197    10.7032    -1.7559 H       
  67 H67           -4.8806     9.3007    -0.9465 H       
  68 H68           -6.2394    10.1570    -0.1792 H       
@<TRIPOS>BOND
   1    1    2 1
   2    1    8 3
   3    2    3 ar
   4    2    7 ar
   5    3    4 ar
   6    3   37 1
   7    4    5 ar
   8    4   38 1
   9    5    6 ar
  10    5   12 1
  11    6    7 ar
  12    6   39 1
  13    7   40 1
  14    9   10 1
  15    9   14 1
  16    9   15 am
  17   10   11 1
  18   10   41 1
  19   10   42 1
  20   11   12 1
  21   11   43 1
  22   11   44 1
  23   12   13 1
  24   12   45 1
  25   13   14 1
  26   13   46 1
  27   13   47 1
  28   14   48 1
  29   14   49 1
  30   15   16 1
  31   15   22 2
  32   16   17 ar
  33   16   21 ar
  34   17   18 ar
  35   17   35 1
  36   18   19 ar
  37   18   50 1
  38   19   20 ar
  39   19   34 1
  40   20   21 ar
  41   20   25 1
  42   21   51 1
  43   23   24 1
  44   23   27 2
  45   24   25 2
  46   25   26 1
  47   26   27 1
  48   26   52 1
  49   27   31 1
  50   28   29 1
  51   28   33 1
  52   29   30 1
  53   29   53 1
  54   29   54 1
  55   30   31 1
  56   30   55 1
  57   30   56 1
  58   31   32 1
  59   32   33 1
  60   32   57 1
  61   32   58 1
  62   33   59 1
  63   33   60 1
  64   34   61 1
  65   34   62 1
  66   34   63 1
  67   35   36 1
  68   35   64 1
  69   35   65 1
  70   36   66 1
  71   36   67 1
  72   36   68 1

#	End of record

