#	Name: ASD05430049
#	Creating user name:	WinNT
#	Creation time:	15. 06. 2019 20:59

#	Modifying user name:	WinNT
#	Modification time:	15. 06. 2019 20:59

#	Program:	/corina/corina34_cracker 3.40 0067  02.08.2006

@<TRIPOS>MOLECULE
ASD05430049
  59   65    0    0    0
SMALL
NO_CHARGES


@<TRIPOS>ATOM
   1 C1            -0.0015     1.3013     0.0370 C.ar    
   2 C2             0.0284    -0.0448    -0.3204 C.ar    
   3 C3             1.2404    -0.6709    -0.5752 C.ar    
   4 C4             2.4270     0.0288    -0.4788 C.ar    
   5 C5             2.4213     1.3782    -0.1223 C.ar    
   6 C6             1.1935     2.0231     0.1386 C.ar    
   7 O7             4.9243     0.0869     0.2232 O.3     
   8 C8             4.8557     1.4535     0.0687 C.2     
   9 C9             3.6837     2.1212    -0.0191 C.2     
  10 C10            5.9209    -0.3800     1.1330 C.3     
  11 C11            7.3460     0.0402     0.7626 C.3     
  12 N12            7.3279     1.4624     0.4236 N.pl3   
  13 C13            6.1720     2.1331     0.0073 C.2     
  14 C14           -1.5577    -1.5534    -1.4762 C.2     
  15 N15           -1.1676    -0.7682    -0.4223 N.pl3   
  16 C16           -2.7652    -2.0591    -1.1598 C.2     
  17 N17           -3.1075    -1.5986     0.0524 N.2     
  18 C18           -2.1588    -0.8243     0.5046 C.2     
  19 C19           -3.5894    -2.9824    -2.0196 C.3     
  20 C20            8.3966     2.4574     0.4509 C.3     
  21 O21            7.8672     3.5322    -0.3546 O.3     
  22 N22            6.4633     3.3155    -0.4130 N.2     
  23 C23            8.6521     2.9250     1.8605 C.ar    
  24 C24            9.6750     1.8940    -0.1729 C.3     
  25 O25           10.7336     2.8430    -0.0286 O.3     
  26 C26            8.3274     2.1093     2.9284 C.ar    
  27 C27            9.2162     4.1671     2.0846 C.ar    
  28 C28            9.4518     4.5967     3.3768 C.ar    
  29 C29            9.1222     3.7827     4.4473 C.ar    
  30 C30            8.5617     2.5369     4.2215 C.ar    
  31 F31            9.3521     4.2016     5.7110 F       
  32 N32            0.8549     3.2874     0.4968 N.2     
  33 C33           -0.4383     3.3590     0.6111 C.2     
  34 O34           -0.9941     2.1692     0.3342 O.3     
  35 C35            5.5746    -0.1222     2.6067 C.3     
  36 O36            4.9797    -1.4361     2.5757 O.3     
  37 C37            5.7945    -1.8731     1.4682 C.3     
  38 H38            1.2557    -1.7149    -0.8510 H       
  39 H39            3.3634    -0.4703    -0.6797 H       
  40 H40            3.6757     3.2012    -0.0133 H       
  41 H41            8.0110    -0.1277     1.6098 H       
  42 H42            7.6889    -0.5383    -0.0952 H       
  43 H43           -1.0049    -1.7291    -2.3872 H       
  44 H44           -2.1613    -0.3143     1.4566 H       
  45 H45           -3.3338    -4.0169    -1.7905 H       
  46 H46           -4.6480    -2.8168    -1.8194 H       
  47 H47           -3.3826    -2.7812    -3.0707 H       
  48 H48            9.9471     0.9667     0.3311 H       
  49 H49            9.5062     1.6963    -1.2314 H       
  50 H50           11.5766     2.5518    -0.4024 H       
  51 H51            7.8903     1.1376     2.7520 H       
  52 H52            9.4732     4.8018     1.2494 H       
  53 H53            9.8931     5.5668     3.5516 H       
  54 H54            8.3039     1.9013     5.0557 H       
  55 H55           -0.9863     4.2482     0.8858 H       
  56 H56            6.4453    -0.0472     3.2581 H       
  57 H57            4.8566     0.6840     2.7568 H       
  58 H58            5.2500    -2.4489     0.7198 H       
  59 H59            6.7332    -2.3392     1.7678 H       
@<TRIPOS>BOND
   1    1    2 ar
   2    1    6 ar
   3    1   34 1
   4    2    3 ar
   5    2   15 1
   6    3    4 ar
   7    3   38 1
   8    4    5 ar
   9    4   39 1
  10    5    6 ar
  11    5    9 1
  12    6   32 1
  13    7    8 1
  14    7   10 1
  15    8    9 2
  16    8   13 1
  17    9   40 1
  18   10   11 1
  19   10   35 1
  20   10   37 1
  21   11   12 1
  22   11   41 1
  23   11   42 1
  24   12   13 1
  25   12   20 1
  26   13   22 2
  27   14   15 1
  28   14   16 2
  29   14   43 1
  30   15   18 1
  31   16   17 1
  32   16   19 1
  33   17   18 2
  34   18   44 1
  35   19   45 1
  36   19   46 1
  37   19   47 1
  38   20   21 1
  39   20   23 1
  40   20   24 1
  41   21   22 1
  42   23   26 ar
  43   23   27 ar
  44   24   25 1
  45   24   48 1
  46   24   49 1
  47   25   50 1
  48   26   30 ar
  49   26   51 1
  50   27   28 ar
  51   27   52 1
  52   28   29 ar
  53   28   53 1
  54   29   30 ar
  55   29   31 1
  56   30   54 1
  57   32   33 2
  58   33   34 1
  59   33   55 1
  60   35   36 1
  61   35   56 1
  62   35   57 1
  63   36   37 1
  64   37   58 1
  65   37   59 1

#	End of record

