#	Name: ASD01901469
#	Creating user name:	WinNT
#	Creation time:	15. 06. 2019 19:53

#	Modifying user name:	WinNT
#	Modification time:	15. 06. 2019 19:53

#	Program:	/corina/corina34_cracker 3.40 0067  02.08.2006

@<TRIPOS>MOLECULE
ASD01901469
  37   40    0    0    0
SMALL
NO_CHARGES


@<TRIPOS>ATOM
   1 C1            -0.0168     1.3891     0.0097 C.ar    
   2 C2             1.1698     2.0933     0.0021 C.ar    
   3 C3             2.3788     1.4169    -0.0135 C.ar    
   4 C4             2.4022     0.0318    -0.0216 C.ar    
   5 C5             1.2202    -0.6802    -0.0137 C.ar    
   6 C6             0.0021    -0.0041     0.0020 C.ar    
   7 C7            -1.2718    -0.7657     0.0101 C.2     
   8 N8            -3.2661    -1.3673     1.1216 N.2     
   9 C9            -2.1423    -0.6929     1.1192 C.2     
  10 C10           -1.6214    -1.5429    -1.0585 C.2     
  11 N11           -2.7989    -2.2292    -1.0188 N.pl3   
  12 C12           -3.6148    -2.1364     0.0793 C.2     
  13 C13           -3.4120    -3.0697    -1.9084 C.2     
  14 C14           -4.5721    -3.4669    -1.3439 C.2     
  15 N15           -4.6797    -2.8942    -0.1413 N.2     
  16 C16           -5.5778    -4.4012    -1.9658 C.3     
  17 O17           -5.1159    -4.8083    -3.2554 O.3     
  18 C18           -5.9110    -5.6573    -3.9550 C.ar    
  19 C19           -7.1216    -6.0977    -3.4285 C.ar    
  20 C20           -5.5383    -6.1052    -5.2205 C.ar    
  21 C21           -6.3725    -6.9675    -5.9007 C.ar    
  22 N22           -7.5116    -7.3684    -5.3679 N.ar    
  23 C23           -7.9030    -6.9625    -4.1727 C.ar    
  24 F24            3.5384     2.1102    -0.0213 F       
  25 F25           -9.0803    -7.3969    -3.6723 F       
  26 H26           -0.9588     1.9171     0.0260 H       
  27 H27            1.1561     3.1732     0.0081 H       
  28 H28            3.3469    -0.4915    -0.0345 H       
  29 H29            1.2393    -1.7600    -0.0204 H       
  30 H30           -1.8811    -0.0796     1.9689 H       
  31 H31           -0.9751    -1.6121    -1.9210 H       
  32 H32           -3.0381    -3.3603    -2.8791 H       
  33 H33           -5.7005    -5.2782    -1.3303 H       
  34 H34           -6.5348    -3.8894    -2.0675 H       
  35 H35           -7.4461    -5.7689    -2.4523 H       
  36 H36           -4.6081    -5.7810    -5.6633 H       
  37 H37           -6.0902    -7.3189    -6.8821 H       
@<TRIPOS>BOND
   1    1    6 ar
   2    1    2 ar
   3    1   26 1
   4    2    3 ar
   5    2   27 1
   6    3    4 ar
   7    3   24 1
   8    4    5 ar
   9    4   28 1
  10    5    6 ar
  11    5   29 1
  12    6    7 1
  13    7   10 2
  14    7    9 1
  15    8    9 2
  16    8   12 1
  17    9   30 1
  18   10   11 1
  19   10   31 1
  20   11   13 1
  21   11   12 1
  22   12   15 2
  23   13   14 2
  24   13   32 1
  25   14   15 1
  26   14   16 1
  27   16   17 1
  28   16   33 1
  29   16   34 1
  30   17   18 1
  31   18   20 ar
  32   18   19 ar
  33   19   23 ar
  34   19   35 1
  35   20   21 ar
  36   20   36 1
  37   21   22 ar
  38   21   37 1
  39   22   23 ar
  40   23   25 1

#	End of record

