#	Name: ASD03731265
#	Creating user name:	WinNT
#	Creation time:	15. 06. 2019 20:45

#	Modifying user name:	WinNT
#	Modification time:	15. 06. 2019 20:45

#	Program:	/corina/corina34_cracker 3.40 0067  02.08.2006

@<TRIPOS>MOLECULE
ASD03731265
  68   72    0    0    0
SMALL
NO_CHARGES


@<TRIPOS>ATOM
   1 N1             0.4102     0.7460    -0.7436 N.am    
   2 C2            -0.2060    -0.4197    -1.0226 C.2     
   3 O3             0.3169    -1.2189    -1.7751 O.2     
   4 N4            -1.4019    -0.6996    -0.4676 N.am    
   5 C5            -2.0716    -1.9668    -0.7709 C.3     
   6 C6            -3.3183    -2.1070     0.1049 C.3     
   7 C7            -2.9887    -1.6733     1.5346 C.3     
   8 C8            -3.0020    -0.1457     1.6200 C.3     
   9 C9            -4.0324    -2.2469     2.4951 C.3     
  10 C10           -1.6020    -2.1935     1.9185 C.3     
  11 C11           -2.4792    -1.9880    -2.2454 C.3     
  12 C12           -1.1169    -3.1285    -0.4888 C.3     
  13 C13            1.7100     1.0502    -1.3469 C.3     
  14 C14            2.1851     2.4239    -0.8691 C.3     
  15 O15            5.5324     0.2115    -6.8350 O.3     
  16 C16            6.6220     0.2443    -7.7756 C.3     
  17 O17            6.9538     1.6424    -7.8664 O.3     
  18 C18            6.5825     2.1850    -6.6695 C.ar    
  19 C19            5.7078     1.3051    -6.0362 C.ar    
  20 C20            6.9267     3.3775    -6.0586 C.ar    
  21 C21            6.4030     3.7081    -4.8124 C.ar    
  22 C22            5.5237     2.8249    -4.1935 C.ar    
  23 C23            5.1834     1.6324    -4.7971 C.ar    
  24 O24            6.6227     4.8098    -4.0389 O.3     
  25 C25            5.1153     3.4662    -2.8942 C.3     
  26 C26            5.5694     4.9225    -3.0626 C.3     
  27 N27            3.4850     2.7281    -1.4725 N.am    
  28 C28            3.6371     3.3651    -2.6506 C.2     
  29 C29            5.7596     2.8128    -1.7077 C.ar    
  30 C30            7.0671     2.5885    -1.3385 C.ar    
  31 C31            7.3499     1.9415    -0.1487 C.ar    
  32 C32            6.3165     1.5202     0.6682 C.ar    
  33 C33            5.0052     1.7417     0.3023 C.ar    
  34 C34            4.7112     2.3925    -0.8934 C.ar    
  35 O35            2.7533     3.7765    -3.3722 O.2     
  36 H36           -0.0089     1.3853    -0.1464 H       
  37 H37           -1.8191    -0.0620     0.1327 H       
  38 H38           -4.1139    -1.4764    -0.2918 H       
  39 H39           -3.6457    -3.1467     0.1070 H       
  40 H40           -3.5700     0.2600     0.7829 H       
  41 H41           -3.4661     0.1618     2.5571 H       
  42 H42           -1.9792     0.2293     1.5809 H       
  43 H43           -4.0230    -3.3351     2.4343 H       
  44 H44           -3.7976    -1.9378     3.5136 H       
  45 H45           -5.0204    -1.8762     2.2216 H       
  46 H46           -0.8830    -1.9139     1.1484 H       
  47 H47           -1.3015    -1.7579     2.8714 H       
  48 H48           -1.6335    -3.2793     2.0092 H       
  49 H49           -1.6036    -1.8012    -2.8671 H       
  50 H50           -2.8987    -2.9633    -2.4924 H       
  51 H51           -3.2256    -1.2148    -2.4273 H       
  52 H52           -1.0652    -3.3037     0.5858 H       
  53 H53           -1.4813    -4.0273    -0.9864 H       
  54 H54           -0.1239    -2.8823    -0.8649 H       
  55 H55            2.4346     0.2918    -1.0504 H       
  56 H56            1.6141     1.0563    -2.4327 H       
  57 H57            1.4605     3.1823    -1.1656 H       
  58 H58            2.2810     2.4178     0.2166 H       
  59 H59            7.4705    -0.3269    -7.3988 H       
  60 H60            6.3025    -0.1372    -8.7453 H       
  61 H61            7.6063     4.0564    -6.5522 H       
  62 H62            4.5059     0.9522    -4.3023 H       
  63 H63            5.9534     5.3194    -2.1228 H       
  64 H64            4.7552     5.5406    -3.4411 H       
  65 H65            7.8725     2.9182    -1.9780 H       
  66 H66            8.3753     1.7663     0.1417 H       
  67 H67            6.5373     1.0151     1.5969 H       
  68 H68            4.2036     1.4093     0.9452 H       
@<TRIPOS>BOND
   1    1    2 am
   2    1   13 1
   3    1   36 1
   4    2    3 2
   5    2    4 am
   6    4    5 1
   7    4   37 1
   8    5    6 1
   9    5   11 1
  10    5   12 1
  11    6    7 1
  12    6   38 1
  13    6   39 1
  14    7    8 1
  15    7    9 1
  16    7   10 1
  17    8   40 1
  18    8   41 1
  19    8   42 1
  20    9   43 1
  21    9   44 1
  22    9   45 1
  23   10   46 1
  24   10   47 1
  25   10   48 1
  26   11   49 1
  27   11   50 1
  28   11   51 1
  29   12   52 1
  30   12   53 1
  31   12   54 1
  32   13   14 1
  33   13   55 1
  34   13   56 1
  35   14   27 1
  36   14   57 1
  37   14   58 1
  38   15   16 1
  39   15   19 1
  40   16   17 1
  41   16   59 1
  42   16   60 1
  43   17   18 1
  44   18   19 ar
  45   18   20 ar
  46   19   23 ar
  47   20   21 ar
  48   20   61 1
  49   21   22 ar
  50   21   24 1
  51   22   23 ar
  52   22   25 1
  53   23   62 1
  54   24   26 1
  55   25   26 1
  56   25   28 1
  57   25   29 1
  58   26   63 1
  59   26   64 1
  60   27   28 am
  61   27   34 1
  62   28   35 2
  63   29   30 ar
  64   29   34 ar
  65   30   31 ar
  66   30   65 1
  67   31   32 ar
  68   31   66 1
  69   32   33 ar
  70   32   67 1
  71   33   34 ar
  72   33   68 1

#	End of record

