#	Name: ASD01816760
#	Creating user name:	WinNT
#	Creation time:	15. 06. 2019 19:35

#	Modifying user name:	WinNT
#	Modification time:	15. 06. 2019 19:35

#	Program:	/corina/corina34_cracker 3.40 0067  02.08.2006

@<TRIPOS>MOLECULE
ASD01816760
  72   76    0    0    0
SMALL
NO_CHARGES


@<TRIPOS>ATOM
   1 C1            -0.2699     1.2367     0.1768 C.2     
   2 C2            -0.2231    -0.1561     0.1698 C.2     
   3 C3             0.9806    -0.8189     0.0929 C.2     
   4 C4             2.1806    -0.1005     0.0206 C.2     
   5 N5             2.0874     1.2803     0.0317 N.am    
   6 C6             0.8875     1.9242     0.1072 C.2     
   7 C7             3.4564    -0.6647    -0.0612 C.2     
   8 C8             4.5793     0.1303    -0.1278 C.2     
   9 C9             4.4620     1.5235    -0.1150 C.2     
  10 C10            3.1734     2.0777    -0.0331 C.2     
  11 C11            3.7605    -2.1425    -0.0863 C.3     
  12 O12            3.0368     3.2908    -0.0198 O.2     
  13 C13            5.6460     2.3838    -0.1856 C.2     
  14 O14            6.7587     1.8928    -0.1376 O.2     
  15 N15            4.0380    -2.6086     1.2789 N.3     
  16 C16            4.1414    -4.0727     1.3243 C.3     
  17 C17            4.2848    -4.5305     2.7775 C.3     
  18 C18            5.5363    -3.8927     3.3872 C.3     
  19 C19            5.4252    -2.3691     3.2836 C.3     
  20 C20            5.2486    -1.9740     1.8157 C.3     
  21 C21            5.6502    -4.2921     4.8358 C.ar    
  22 N22            4.6098    -4.8203     5.4500 N.ar    
  23 C23            4.6633    -5.1845     6.7164 C.ar    
  24 C24            5.8231    -5.0229     7.4499 C.ar    
  25 C25            6.9383    -4.4708     6.8380 C.ar    
  26 C26            6.8459    -4.1056     5.5039 C.ar    
  27 C27            6.7282    -4.3500     2.6544 C.1     
  28 N28            7.6481    -4.7028     2.0889 N.1     
  29 C29            0.8507    -2.3223     0.0969 C.3     
  30 N30            5.5031     3.7187    -0.3035 N.am    
  31 C31            6.6836     4.5699    -0.4710 C.3     
  32 C32            6.3701     5.9811     0.0301 C.3     
  33 C33            7.0651     4.6274    -1.9515 C.3     
  34 C34            8.2980     5.5163    -2.1264 C.3     
  35 C35            7.9845     6.9275    -1.6253 C.3     
  36 C36            7.6030     6.8700    -0.1447 C.3     
  37 F37            7.3518     3.3370    -2.4097 F       
  38 C38            8.2219    -4.2774     7.6036 C.3     
  39 H39           -1.2126     1.7573     0.2412 H       
  40 H40           -1.1348    -0.7364     0.2245 H       
  41 H41            0.8626     3.0053     0.1126 H       
  42 H42            5.5512    -0.3412    -0.1900 H       
  43 H43            2.9033    -2.6831    -0.4876 H       
  44 H44            4.6315    -2.3235    -0.7161 H       
  45 H45            3.2434    -4.5138     0.8915 H       
  46 H46            5.0138    -4.3931     0.7547 H       
  47 H47            3.4064    -4.2225     3.3445 H       
  48 H48            4.3772    -5.6161     2.8096 H       
  49 H49            4.5646    -2.0271     3.8586 H       
  50 H50            6.3322    -1.9105     3.6774 H       
  51 H51            6.1158    -2.3042     1.2439 H       
  52 H52            5.1548    -0.8907     1.7400 H       
  53 H53            3.7904    -5.6138     7.1856 H       
  54 H54            5.8605    -5.3225     8.4869 H       
  55 H55            7.6947    -3.6730     4.9953 H       
  56 H56           -0.1925    -2.5965     0.2540 H       
  57 H57            1.1905    -2.7190    -0.8598 H       
  58 H58            1.4602    -2.7375     0.8995 H       
  59 H59            4.6185     4.1159    -0.2776 H       
  60 H60            7.5136     4.1568     0.1023 H       
  61 H61            5.5401     6.3942    -0.5431 H       
  62 H62            6.0983     5.9401     1.0849 H       
  63 H63            6.2351     5.0405    -2.5248 H       
  64 H64            9.1280     5.1033    -1.5531 H       
  65 H65            8.5698     5.5573    -3.1811 H       
  66 H66            8.8629     7.5608    -1.7498 H       
  67 H67            7.1545     7.3406    -2.1985 H       
  68 H68            7.3797     7.8754     0.2123 H       
  69 H69            8.4330     6.4570     0.4285 H       
  70 H70            8.8411    -5.1691     7.5059 H       
  71 H71            8.7580    -3.4171     7.2027 H       
  72 H72            7.9951    -4.1061     8.6559 H       
@<TRIPOS>BOND
   1    1    2 1
   2    1    6 2
   3    1   39 1
   4    2    3 2
   5    2   40 1
   6    3    4 1
   7    3   29 1
   8    4    5 1
   9    4    7 2
  10    5    6 1
  11    5   10 am
  12    6   41 1
  13    7    8 1
  14    7   11 1
  15    8    9 2
  16    8   42 1
  17    9   10 1
  18    9   13 1
  19   10   12 2
  20   11   15 1
  21   11   43 1
  22   11   44 1
  23   13   14 2
  24   13   30 am
  25   15   16 1
  26   15   20 1
  27   16   17 1
  28   16   45 1
  29   16   46 1
  30   17   18 1
  31   17   47 1
  32   17   48 1
  33   18   19 1
  34   18   21 1
  35   18   27 1
  36   19   20 1
  37   19   49 1
  38   19   50 1
  39   20   51 1
  40   20   52 1
  41   21   22 ar
  42   21   26 ar
  43   22   23 ar
  44   23   24 ar
  45   23   53 1
  46   24   25 ar
  47   24   54 1
  48   25   26 ar
  49   25   38 1
  50   26   55 1
  51   27   28 3
  52   29   56 1
  53   29   57 1
  54   29   58 1
  55   30   31 1
  56   30   59 1
  57   31   32 1
  58   31   33 1
  59   31   60 1
  60   32   36 1
  61   32   61 1
  62   32   62 1
  63   33   34 1
  64   33   37 1
  65   33   63 1
  66   34   35 1
  67   34   64 1
  68   34   65 1
  69   35   36 1
  70   35   66 1
  71   35   67 1
  72   36   68 1
  73   36   69 1
  74   38   70 1
  75   38   71 1
  76   38   72 1

#	End of record

