#	Name: ASD01883428
#	Creating user name:	WinNT
#	Creation time:	15. 06. 2019 19:46

#	Modifying user name:	WinNT
#	Modification time:	15. 06. 2019 19:46

#	Program:	/corina/corina34_cracker 3.40 0067  02.08.2006

@<TRIPOS>MOLECULE
ASD01883428
  50   52    0    0    0
SMALL
NO_CHARGES


@<TRIPOS>ATOM
   1 N1            -0.0702     1.0958    -0.4965 N.am    
   2 C2            -0.6904     0.6795    -1.6162 C.2     
   3 C3            -1.9812     0.1057    -1.5360 C.2     
   4 C4            -2.5885    -0.0158    -0.2747 C.2     
   5 C5            -1.8894     0.4378     0.8591 C.2     
   6 C6            -0.6565     0.9729     0.7228 C.2     
   7 O7            -0.1407     0.7971    -2.6983 O.2     
   8 C8            -2.6557    -0.3421    -2.7171 C.1     
   9 N9            -3.1908    -0.6973    -3.6542 N.1     
  10 N10           -3.8437    -0.5677    -0.1507 N.pl3   
  11 C11           -4.9730     0.2409     0.3285 C.3     
  12 C12           -5.6278    -0.4788     1.5117 C.3     
  13 C13           -6.0064    -1.9011     1.0924 C.3     
  14 C14           -4.7443    -2.6712     0.6970 C.3     
  15 C15           -4.0807    -1.9748    -0.5008 C.3     
  16 C16            1.2664     1.6876    -0.5939 C.3     
  17 C17            1.1415     3.2003    -0.7866 C.3     
  18 C18            2.5374     3.8184    -0.8884 C.3     
  19 C19            2.4125     5.3311    -1.0811 C.3     
  20 O20           -6.6467    -2.5648     2.1840 O.3     
  21 C21           -7.4939    -3.5820     1.8763 C.ar    
  22 C22           -7.6610    -3.9860     0.5559 C.ar    
  23 C23           -8.5359    -5.0277     0.2915 C.ar    
  24 C24           -9.2084    -5.6266     1.3400 C.ar    
  25 N25           -9.0276    -5.2191     2.5811 N.ar    
  26 C26           -8.2002    -4.2362     2.8755 C.ar    
  27 H27           -2.3369     0.3548     1.8386 H       
  28 H28           -0.1296     1.3177     1.6002 H       
  29 H29           -4.6125     1.2182     0.6494 H       
  30 H30           -5.7012     0.3630    -0.4733 H       
  31 H31           -4.9270    -0.5198     2.3456 H       
  32 H32           -6.5243     0.0617     1.8154 H       
  33 H33           -6.6878    -1.8600     0.2426 H       
  34 H34           -4.0519    -2.6915     1.5386 H       
  35 H35           -5.0120    -3.6911     0.4208 H       
  36 H36           -4.7375    -2.0354    -1.3686 H       
  37 H37           -3.1304    -2.4595    -0.7247 H       
  38 H38            1.8221     1.4826     0.3211 H       
  39 H39            1.7941     1.2554    -1.4441 H       
  40 H40            0.5858     3.4053    -1.7017 H       
  41 H41            0.6138     3.6326     0.0635 H       
  42 H42            3.0931     3.6134     0.0266 H       
  43 H43            3.0651     3.3862    -1.7386 H       
  44 H44            3.4069     5.7715    -1.1536 H       
  45 H45            1.8568     5.5361    -1.9962 H       
  46 H46            1.8848     5.7634    -0.2310 H       
  47 H47           -7.1224    -3.4995    -0.2439 H       
  48 H48           -8.6906    -5.3674    -0.7219 H       
  49 H49           -9.8915    -6.4389     1.1401 H       
  50 H50           -8.0783    -3.9301     3.9041 H       
@<TRIPOS>BOND
   1    1    2 am
   2    1   16 1
   3    1    6 1
   4    2    3 1
   5    2    7 2
   6    3    4 2
   7    3    8 1
   8    4    5 1
   9    4   10 1
  10    5    6 2
  11    5   27 1
  12    6   28 1
  13    8    9 3
  14   10   11 1
  15   10   15 1
  16   11   12 1
  17   11   29 1
  18   11   30 1
  19   12   13 1
  20   12   31 1
  21   12   32 1
  22   13   14 1
  23   13   20 1
  24   13   33 1
  25   14   15 1
  26   14   34 1
  27   14   35 1
  28   15   36 1
  29   15   37 1
  30   16   17 1
  31   16   38 1
  32   16   39 1
  33   17   18 1
  34   17   40 1
  35   17   41 1
  36   18   19 1
  37   18   42 1
  38   18   43 1
  39   19   44 1
  40   19   45 1
  41   19   46 1
  42   20   21 1
  43   21   22 ar
  44   21   26 ar
  45   22   23 ar
  46   22   47 1
  47   23   24 ar
  48   23   48 1
  49   24   25 ar
  50   24   49 1
  51   25   26 ar
  52   26   50 1

#	End of record

