#	Name: ASD08150042
#	Creating user name:	WinNT
#	Creation time:	15. 06. 2019 21:15

#	Modifying user name:	WinNT
#	Modification time:	15. 06. 2019 21:15

#	Program:	/corina/corina34_cracker 3.40 0067  02.08.2006

@<TRIPOS>MOLECULE
ASD08150042
  46   50    0    0    0
SMALL
NO_CHARGES


@<TRIPOS>ATOM
   1 N1             0.0473     1.2826     0.3195 N.2     
   2 C2             0.0352    -0.0122     0.2232 C.2     
   3 N3             1.1528    -0.7564     0.0160 N.am    
   4 C4             2.3636    -0.1633    -0.1021 C.2     
   5 C5             2.4125     1.3013     0.0021 C.ar    
   6 C6             3.6103     2.0096    -0.1061 C.ar    
   7 C7             3.5967     3.3865    -0.0006 C.ar    
   8 C8             2.4053     4.0656     0.2111 C.ar    
   9 C9             1.2133     3.3841     0.3205 C.ar    
  10 C10            1.1992     1.9922     0.2177 C.ar    
  11 O11            3.3731    -0.8180    -0.2871 O.2     
  12 F12            4.7734     1.3537    -0.3117 F       
  13 C13            1.0465    -2.2144    -0.0799 C.3     
  14 C14            0.9561    -2.6172    -1.5293 C.ar    
  15 C15            2.1087    -2.7744    -2.2761 C.ar    
  16 C16            2.0258    -3.1438    -3.6056 C.ar    
  17 C17            0.7903    -3.3564    -4.1882 C.ar    
  18 C18           -0.3622    -3.2001    -3.4411 C.ar    
  19 C19           -0.2791    -2.8349    -2.1104 C.ar    
  20 C20           -1.2861    -0.7260     0.3481 C.3     
  21 N21           -3.7348     1.4601     1.8173 N.2     
  22 C22           -2.7995     0.5594     1.9054 C.2     
  23 N23           -2.3377     0.2444     0.6621 N.pl3   
  24 C24           -3.0381     1.0033    -0.2413 C.ar    
  25 N25           -3.0323     1.1306    -1.5640 N.ar    
  26 C26           -3.8513     1.9711    -2.1607 C.ar    
  27 N27           -4.7080     2.7212    -1.4922 N.ar    
  28 C28           -4.7859     2.6624    -0.1667 C.ar    
  29 C29           -3.9321     1.7795     0.5157 C.ar    
  30 N30           -5.6868     3.4529     0.5253 N.pl3   
  31 H31            4.5209     3.9392    -0.0832 H       
  32 H32            2.4128     5.1425     0.2915 H       
  33 H33            0.2930     3.9248     0.4849 H       
  34 H34            1.9265    -2.6733     0.3705 H       
  35 H35            0.1526    -2.5489     0.4465 H       
  36 H36            3.0739    -2.6082    -1.8210 H       
  37 H37            2.9262    -3.2659    -4.1893 H       
  38 H38            0.7255    -3.6444    -5.2270 H       
  39 H39           -1.3275    -3.3659    -3.8963 H       
  40 H40           -1.1794    -2.7164    -1.5258 H       
  41 H41           -1.5204    -1.2240    -0.5927 H       
  42 H42           -1.2251    -1.4664     1.1457 H       
  43 H43           -2.4417     0.1258     2.8275 H       
  44 H44           -3.8210     2.0503    -3.2374 H       
  45 H45           -6.2708     4.0588     0.0430 H       
  46 H46           -5.7342     3.4009     1.4928 H       
@<TRIPOS>BOND
   1    1    2 2
   2    1   10 1
   3    2    3 1
   4    2   20 1
   5    3    4 am
   6    3   13 1
   7    4    5 1
   8    4   11 2
   9    5    6 ar
  10    5   10 ar
  11    6    7 ar
  12    6   12 1
  13    7    8 ar
  14    7   31 1
  15    8    9 ar
  16    8   32 1
  17    9   10 ar
  18    9   33 1
  19   13   14 1
  20   13   34 1
  21   13   35 1
  22   14   15 ar
  23   14   19 ar
  24   15   16 ar
  25   15   36 1
  26   16   17 ar
  27   16   37 1
  28   17   18 ar
  29   17   38 1
  30   18   19 ar
  31   18   39 1
  32   19   40 1
  33   20   23 1
  34   20   41 1
  35   20   42 1
  36   21   22 2
  37   21   29 1
  38   22   23 1
  39   22   43 1
  40   23   24 1
  41   24   25 ar
  42   24   29 ar
  43   25   26 ar
  44   26   27 ar
  45   26   44 1
  46   27   28 ar
  47   28   29 ar
  48   28   30 1
  49   30   45 1
  50   30   46 1

#	End of record

