#	Name: ASD01120253
#	Creating user name:	WinNT
#	Creation time:	15. 06. 2019 18:59

#	Modifying user name:	WinNT
#	Modification time:	15. 06. 2019 18:59

#	Program:	/corina/corina34_cracker 3.40 0067  02.08.2006

@<TRIPOS>MOLECULE
ASD01120253
  54   55    0    0    0
SMALL
NO_CHARGES


@<TRIPOS>ATOM
   1 C1            -0.0167     1.3791     0.0096 C.ar    
   2 C2             0.0021    -0.0041     0.0020 C.ar    
   3 C3            -1.1857    -0.7112     0.0100 C.ar    
   4 C4            -2.3919    -0.0365     0.0257 C.ar    
   5 C5            -2.4113     1.3460     0.0333 C.ar    
   6 C6            -1.2245     2.0540     0.0306 C.ar    
   7 S7            -3.9495     2.2052     0.0532 S.o2    
   8 N8            -4.3617     2.4358     1.6404 N.am    
   9 C9            -3.6007     3.2226     2.4268 C.2     
  10 N10           -3.9362     3.4102     3.7186 N.am    
  11 O11           -3.6957     3.4949    -0.4869 O.2     
  12 O12           -4.9146     1.3128    -0.4865 O.2     
  13 O13           -2.6116     3.7631     1.9709 O.2     
  14 C14           -1.3896    11.4607    12.0666 C.ar    
  15 C15           -2.4655    12.2341    12.4636 C.ar    
  16 C16           -3.4552    11.6856    13.2576 C.ar    
  17 C17           -3.3698    10.3644    13.6548 C.ar    
  18 C18           -2.2947     9.5908    13.2583 C.ar    
  19 C19           -1.3073    10.1366    12.4603 C.ar    
  20 S20           -2.1868     7.9067    13.7652 S.o2    
  21 N21           -2.9513     6.9976    12.6115 N.am    
  22 C22           -2.4523     6.9374    11.3609 C.2     
  23 N23           -3.0745     6.1975    10.4219 N.am    
  24 O24           -0.8108     7.5569    13.7050 O.2     
  25 O25           -2.9666     7.7929    14.9477 O.2     
  26 O26           -1.4407     7.5507    11.0800 O.2     
  27 Cl27          -0.1466    12.1487    11.0690 Cl      
  28 Cl28           1.4746     2.2678     0.0002 Cl      
  29 C29           -2.5320     6.1321     9.0626 C.3     
  30 C30           -3.4205     5.2320     8.2016 C.3     
  31 N31           -2.8766     5.1665     6.8387 N.3     
  32 C32           -3.7059     4.3089     5.9815 C.3     
  33 C33           -3.1091     4.2655     4.5734 C.3     
  34 H34            0.9445    -0.5314    -0.0105 H       
  35 H35           -1.1712    -1.7911     0.0037 H       
  36 H36           -3.3197    -0.5894     0.0316 H       
  37 H37           -1.2398     3.1339     0.0365 H       
  38 H38           -5.1507     2.0046     2.0041 H       
  39 H39           -4.7253     2.9790     4.0823 H       
  40 H40           -2.5321    13.2665    12.1535 H       
  41 H41           -4.2951    12.2895    13.5679 H       
  42 H42           -4.1431     9.9364    14.2755 H       
  43 H43           -0.4675     9.5323    12.1506 H       
  44 H44           -3.7584     6.5083    12.8356 H       
  45 H45           -3.8815     5.7082    10.6461 H       
  46 H46           -2.5052     7.1337     8.6336 H       
  47 H47           -1.5221     5.7230     9.0938 H       
  48 H48           -3.4473     4.2304     8.6307 H       
  49 H49           -4.4304     5.6411     8.1705 H       
  50 H50           -2.7812     6.0896     6.4426 H       
  51 H51           -3.7347     3.3009     6.3952 H       
  52 H52           -4.7178     4.7116     5.9350 H       
  53 H53           -2.0973     3.8628     4.6199 H       
  54 H54           -3.0803     5.2735     4.1597 H       
@<TRIPOS>BOND
   1    1    2 ar
   2    1   28 1
   3    1    6 ar
   4    2    3 ar
   5    2   34 1
   6    3    4 ar
   7    3   35 1
   8    4    5 ar
   9    4   36 1
  10    5    6 ar
  11    5    7 1
  12    6   37 1
  13    7    8 am
  14    7   11 2
  15    7   12 2
  16    8    9 am
  17    8   38 1
  18    9   10 am
  19    9   13 2
  20   10   33 1
  21   10   39 1
  22   14   15 ar
  23   14   27 1
  24   14   19 ar
  25   15   16 ar
  26   15   40 1
  27   16   17 ar
  28   16   41 1
  29   17   18 ar
  30   17   42 1
  31   18   19 ar
  32   18   20 1
  33   19   43 1
  34   20   21 am
  35   20   24 2
  36   20   25 2
  37   21   22 am
  38   21   44 1
  39   22   23 am
  40   22   26 2
  41   23   29 1
  42   23   45 1
  43   29   30 1
  44   29   46 1
  45   29   47 1
  46   30   31 1
  47   30   48 1
  48   30   49 1
  49   31   32 1
  50   31   50 1
  51   32   33 1
  52   32   51 1
  53   32   52 1
  54   33   53 1
  55   33   54 1

#	End of record

