#	Name: ASD01900955
#	Creating user name:	WinNT
#	Creation time:	15. 06. 2019 19:52

#	Modifying user name:	WinNT
#	Modification time:	15. 06. 2019 19:52

#	Program:	/corina/corina34_cracker 3.40 0067  02.08.2006

@<TRIPOS>MOLECULE
ASD01900955
  58   62    0    0    0
SMALL
NO_CHARGES


@<TRIPOS>ATOM
   1 C1             1.6188     0.9471     1.2067 C.ar    
   2 C2             1.8271    -0.4157     1.1872 C.ar    
   3 C3             3.0303    -0.9371     0.7331 C.ar    
   4 C4             4.0412    -0.0979     0.3010 C.ar    
   5 C5             3.8495     1.2726     0.3205 C.ar    
   6 C6             2.6257     1.8034     0.7662 C.ar    
   7 N7             4.8431     2.1565    -0.0854 N.pl3   
   8 C8             4.4499     3.4572    -0.6391 C.3     
   9 N9             3.3709     4.0423     0.1578 N.am    
  10 C10            2.4499     3.2657     0.7621 C.2     
  11 C11            5.6589     4.3973    -0.6278 C.3     
  12 C12            3.9743     3.2698    -2.0825 C.3     
  13 C13            3.6302     4.6354    -2.6816 C.3     
  14 N14            4.8167     5.4998    -2.6466 N.3     
  15 C15            5.2661     5.7309    -1.2678 C.3     
  16 C16            3.2944     5.4339     0.2954 C.ar    
  17 C17            2.3356     6.1498    -0.4092 C.ar    
  18 C18            2.2604     7.5219    -0.2726 C.ar    
  19 C19            3.1423     8.1850     0.5681 C.ar    
  20 C20            4.1007     7.4705     1.2719 C.ar    
  21 C21            4.1735     6.0978     1.1408 C.ar    
  22 C22            4.5626     6.7710    -3.3375 C.3     
  23 C23            4.5854     6.5462    -4.8275 C.ar    
  24 O24            1.4813     3.7683     1.2993 O.2     
  25 O25            3.0677     9.5360     0.7020 O.3     
  26 Cl26           3.2687    -2.6565     0.7079 Cl      
  27 C27            3.6945     7.2200    -5.6418 C.ar    
  28 C28            3.7154     7.0137    -7.0085 C.ar    
  29 C29            4.6274     6.1340    -7.5609 C.ar    
  30 C30            5.5189     5.4609    -6.7467 C.ar    
  31 C31            5.5009     5.6704    -5.3804 C.ar    
  32 Cl32           2.9475     7.4074    -2.8503 Cl      
  33 C33            4.0070    10.1534     1.5844 C.3     
  34 H34            0.6793     1.3482     1.5571 H       
  35 H35            1.0485    -1.0821     1.5279 H       
  36 H36            4.9759    -0.5101    -0.0496 H       
  37 H37            5.7797     1.9176    -0.0037 H       
  38 H38            5.9785     4.5670     0.4003 H       
  39 H39            6.4747     3.9480    -1.1941 H       
  40 H40            4.7662     2.8041    -2.6691 H       
  41 H41            3.0893     2.6336    -2.0945 H       
  42 H42            3.3044     4.5075    -3.7139 H       
  43 H43            2.8291     5.0946    -2.1024 H       
  44 H44            4.4584     6.1852    -0.6939 H       
  45 H45            6.1275     6.3986    -1.2737 H       
  46 H46            1.6491     5.6338    -1.0640 H       
  47 H47            1.5149     8.0789    -0.8208 H       
  48 H48            4.7873     7.9874     1.9260 H       
  49 H49            4.9168     5.5411     1.6922 H       
  50 H50            5.3340     7.4920    -3.0670 H       
  51 H51            2.9819     7.9073    -5.2102 H       
  52 H52            3.0189     7.5397    -7.6447 H       
  53 H53            4.6432     5.9723    -8.6287 H       
  54 H54            6.2312     4.7733    -7.1782 H       
  55 H55            6.1998     5.1473    -4.7446 H       
  56 H56            3.8792     9.7519     2.5897 H       
  57 H57            5.0199     9.9490     1.2376 H       
  58 H58            3.8383    11.2302     1.5990 H       
@<TRIPOS>BOND
   1    1    2 ar
   2    1    6 ar
   3    1   34 1
   4    2    3 ar
   5    2   35 1
   6    3    4 ar
   7    3   26 1
   8    4    5 ar
   9    4   36 1
  10    5    7 1
  11    5    6 ar
  12    6   10 1
  13    7    8 1
  14    7   37 1
  15    8    9 1
  16    8   12 1
  17    8   11 1
  18    9   10 am
  19    9   16 1
  20   10   24 2
  21   11   15 1
  22   11   38 1
  23   11   39 1
  24   12   13 1
  25   12   40 1
  26   12   41 1
  27   13   14 1
  28   13   42 1
  29   13   43 1
  30   14   15 1
  31   14   22 1
  32   15   44 1
  33   15   45 1
  34   16   17 ar
  35   16   21 ar
  36   17   18 ar
  37   17   46 1
  38   18   19 ar
  39   18   47 1
  40   19   20 ar
  41   19   25 1
  42   20   21 ar
  43   20   48 1
  44   21   49 1
  45   22   23 1
  46   22   32 1
  47   22   50 1
  48   23   27 ar
  49   23   31 ar
  50   25   33 1
  51   27   28 ar
  52   27   51 1
  53   28   29 ar
  54   28   52 1
  55   29   30 ar
  56   29   53 1
  57   30   31 ar
  58   30   54 1
  59   31   55 1
  60   33   56 1
  61   33   57 1
  62   33   58 1

#	End of record

