#	Name: ASD07930732
#	Creating user name:	WinNT
#	Creation time:	15. 06. 2019 21:13

#	Modifying user name:	WinNT
#	Modification time:	15. 06. 2019 21:13

#	Program:	/corina/corina34_cracker 3.40 0067  02.08.2006

@<TRIPOS>MOLECULE
ASD07930732
  42   43    0    0    0
SMALL
NO_CHARGES


@<TRIPOS>ATOM
   1 C1             0.0027     1.2818    -0.4476 C.3     
   2 N2            -0.6749    -0.8583    -2.4145 N.2     
   3 N3             1.0300    -2.0491    -1.3483 N.pl3   
   4 C4             1.0580    -2.9663    -0.2042 C.3     
   5 C5             1.2997    -2.1639     1.0818 C.3     
   6 S6             0.0038    -0.8920     1.2134 S.o2    
   7 N7             0.0402    -0.1742    -0.2899 N.am    
   8 C8             0.1073    -1.0237    -1.3851 C.2     
   9 C9             2.1861    -3.9827    -0.3918 C.3     
  10 O10           -1.2830    -1.4894     1.2933 O.2     
  11 O11            0.3968     0.1374     2.1107 O.2     
  12 C12           -0.2603    -3.6898    -0.1068 C.ar    
  13 C13           -0.4699    -4.6136     0.9026 C.ar    
  14 C14           -1.6814    -5.2781     0.9924 C.ar    
  15 C15           -2.6812    -5.0188     0.0748 C.ar    
  16 C16           -2.4716    -4.0947    -0.9350 C.ar    
  17 C17           -1.2621    -3.4269    -1.0219 C.ar    
  18 F18            0.5077    -4.8672     1.7999 F       
  19 F19           -3.4490    -3.8415    -1.8325 F       
  20 C20            2.6745    -1.4952     1.0219 C.3     
  21 C21            2.9869    -0.8495     2.3733 C.3     
  22 O22            4.3218    -0.3396     2.3605 O.3     
  23 C23            4.7162     0.2875     3.5824 C.3     
  24 H24            1.0198     1.6736    -0.4473 H       
  25 H25           -0.4830     1.5327    -1.3907 H       
  26 H26           -0.5567     1.7223     0.3776 H       
  27 H27           -1.3176    -0.1318    -2.4236 H       
  28 H28            1.6616    -2.1606    -2.0760 H       
  29 H29            1.2510    -2.8287     1.9443 H       
  30 H30            3.1395    -3.4589    -0.4606 H       
  31 H31            2.2064    -4.6641     0.4588 H       
  32 H32            2.0161    -4.5494    -1.3072 H       
  33 H33           -1.8447    -5.9994     1.7795 H       
  34 H34           -3.6262    -5.5371     0.1448 H       
  35 H35           -1.0987    -2.7060    -1.8092 H       
  36 H36            3.4330    -2.2439     0.7930 H       
  37 H37            2.6730    -0.7303     0.2454 H       
  38 H38            2.2880    -0.0333     2.5562 H       
  39 H39            2.8901    -1.5945     3.1631 H       
  40 H40            4.6553    -0.4339     4.3972 H       
  41 H41            5.7411     0.6475     3.4917 H       
  42 H42            4.0532     1.1273     3.7903 H       
@<TRIPOS>BOND
   1    1    7 1
   2    1   24 1
   3    1   25 1
   4    1   26 1
   5    2    8 2
   6    2   27 1
   7    3    4 1
   8    3    8 1
   9    3   28 1
  10    4    9 1
  11    4   12 1
  12    4    5 1
  13    5    6 1
  14    5   20 1
  15    5   29 1
  16    6    7 am
  17    6   10 2
  18    6   11 2
  19    7    8 1
  20    9   30 1
  21    9   31 1
  22    9   32 1
  23   12   13 ar
  24   12   17 ar
  25   13   14 ar
  26   13   18 1
  27   14   15 ar
  28   14   33 1
  29   15   16 ar
  30   15   34 1
  31   16   17 ar
  32   16   19 1
  33   17   35 1
  34   20   21 1
  35   20   36 1
  36   20   37 1
  37   21   22 1
  38   21   38 1
  39   21   39 1
  40   22   23 1
  41   23   40 1
  42   23   41 1
  43   23   42 1

#	End of record

