#	Name: ASD01915863
#	Creating user name:	WinNT
#	Creation time:	15. 06. 2019 20:06

#	Modifying user name:	WinNT
#	Modification time:	15. 06. 2019 20:06

#	Program:	/corina/corina34_cracker 3.40 0067  02.08.2006

@<TRIPOS>MOLECULE
ASD01915863
  46   50    0    0    0
SMALL
NO_CHARGES


@<TRIPOS>ATOM
   1 C1            -0.0042     1.4689     0.2360 C.2     
   2 N2             0.0665     0.1197    -0.0302 N.pl3   
   3 C3            -1.1424    -0.6630    -0.3143 C.3     
   4 C4            -2.3279    -0.0487     0.4282 C.3     
   5 N5            -2.4044     1.3988     0.2637 N.am    
   6 C6            -1.2936     2.1743     0.2875 C.2     
   7 C7             1.2762     1.9061     0.4280 C.2     
   8 C8             2.0759     0.7655     0.2751 C.2     
   9 N9             1.2868    -0.2496     0.0109 N.2     
  10 C10            3.5774     0.7137     0.3926 C.3     
  11 O11            4.0775     2.0194     0.6880 O.3     
  12 C12            5.4232     2.1477     0.8273 C.ar    
  13 O13           -1.3592     3.3875     0.3484 O.2     
  14 C14            5.9770     3.3869     1.1143 C.ar    
  15 C15            6.2451     1.0387     0.6882 C.ar    
  16 C16            7.6127     1.1718     0.8302 C.ar    
  17 C17            8.1626     2.4090     1.1106 C.ar    
  18 C18            7.3452     3.5148     1.2553 C.ar    
  19 C19           -3.6530     1.9998     0.0772 C.ar    
  20 C20           -3.9541     2.5886    -1.1319 C.ar    
  21 C21           -5.2082     3.1899    -1.3131 C.ar    
  22 C22           -6.1490     3.1851    -0.2534 C.ar    
  23 C23           -5.8080     2.5748     0.9665 C.ar    
  24 C24           -4.5885     1.9933     1.1180 C.ar    
  25 C25           -5.5566     3.8036    -2.5333 C.ar    
  26 C26           -6.7963     4.3705    -2.6390 C.ar    
  27 C27           -7.6727     4.3300    -1.5577 C.ar    
  28 N28           -7.3450     3.7587    -0.4241 N.ar    
  29 Cl29          -4.4426     3.8392    -3.8643 Cl      
  30 H30           -1.3393    -0.6521    -1.3863 H       
  31 H31           -0.9972    -1.6906     0.0190 H       
  32 H32           -3.2485    -0.4951     0.0522 H       
  33 H33           -2.2357    -0.2781     1.4898 H       
  34 H34            1.6011     2.9120     0.6494 H       
  35 H35            3.8557     0.0283     1.1932 H       
  36 H36            4.0037     0.3656    -0.5482 H       
  37 H37            5.3389     4.2510     1.2271 H       
  38 H38            5.8159     0.0721     0.4695 H       
  39 H39            8.2529     0.3087     0.7223 H       
  40 H40            9.2321     2.5111     1.2212 H       
  41 H41            7.7772     4.4802     1.4740 H       
  42 H42           -3.2301     2.5873    -1.9333 H       
  43 H43           -6.5161     2.5648     1.7819 H       
  44 H44           -4.3349     1.5265     2.0582 H       
  45 H45           -7.0952     4.8493    -3.5597 H       
  46 H46           -8.6488     4.7818    -1.6554 H       
@<TRIPOS>BOND
   1    1    2 1
   2    1    7 2
   3    1    6 1
   4    2    3 1
   5    2    9 1
   6    3    4 1
   7    3   30 1
   8    3   31 1
   9    4    5 1
  10    4   32 1
  11    4   33 1
  12    5    6 am
  13    5   19 1
  14    6   13 2
  15    7    8 1
  16    7   34 1
  17    8    9 2
  18    8   10 1
  19   10   11 1
  20   10   35 1
  21   10   36 1
  22   11   12 1
  23   12   14 ar
  24   12   15 ar
  25   14   18 ar
  26   14   37 1
  27   15   16 ar
  28   15   38 1
  29   16   17 ar
  30   16   39 1
  31   17   18 ar
  32   17   40 1
  33   18   41 1
  34   19   20 ar
  35   19   24 ar
  36   20   21 ar
  37   20   42 1
  38   21   22 ar
  39   21   25 ar
  40   22   23 ar
  41   22   28 ar
  42   23   24 ar
  43   23   43 1
  44   24   44 1
  45   25   26 ar
  46   25   29 1
  47   26   27 ar
  48   26   45 1
  49   27   28 ar
  50   27   46 1

#	End of record

