#	Name: ASD03082379
#	Creating user name:	WinNT
#	Creation time:	15. 06. 2019 20:27

#	Modifying user name:	WinNT
#	Modification time:	15. 06. 2019 20:27

#	Program:	/corina/corina34_cracker 3.40 0067  02.08.2006

@<TRIPOS>MOLECULE
ASD03082379
  52   54    0    0    0
SMALL
NO_CHARGES


@<TRIPOS>ATOM
   1 C1            -3.3291     0.5216     1.7141 C.ar    
   2 C2            -3.0769    -0.5768     0.9019 C.ar    
   3 C3            -4.1082    -1.1399     0.1603 C.ar    
   4 C4            -5.3797    -0.6064     0.2329 C.ar    
   5 C5            -5.6272     0.4875     1.0422 C.ar    
   6 C6            -4.6034     1.0502     1.7819 C.ar    
   7 N7            -1.7892    -1.1137     0.8306 N.pl3   
   8 C8            -1.6119    -2.4689     0.5323 C.2     
   9 C9            -0.3805    -3.1110     0.3165 C.2     
  10 N10           -2.5665    -3.3615     0.4112 N.2     
  11 N11           -1.9762    -4.5956     0.1099 N.pl3   
  12 C12           -0.6307    -4.4140     0.0575 C.2     
  13 C13           -2.6519    -5.8021    -0.0961 C.ar    
  14 C14           -2.1787    -6.9899     0.4578 C.ar    
  15 C15           -3.8195    -5.8468    -0.8560 C.ar    
  16 C16           -4.4568    -7.0572    -1.0354 C.ar    
  17 N17           -3.9743    -8.1618    -0.4984 N.ar    
  18 C18           -2.8751    -8.1596     0.2313 C.ar    
  19 C19           -5.7203    -7.1185    -1.8545 C.3     
  20 H20           -2.5131    -9.0858     0.6528 H       
  21 C21            0.3982    -5.4748    -0.2375 C.3     
  22 C22            1.0017    -5.9788     1.0750 C.3     
  23 C23            1.9345    -7.1278     0.7905 C.2     
  24 N24            2.5845    -7.7348     1.8032 N.am    
  25 O25            2.1002    -7.5063    -0.3498 O.2     
  26 C26            3.4912    -8.8517     1.5266 C.3     
  27 C27            2.3843    -7.2776     3.1806 C.3     
  28 C28           -4.8780     2.2417     2.6626 C.3     
  29 F29           -6.2289     2.5922     2.5651 F       
  30 F30           -4.5742     1.9205     3.9899 F       
  31 F31           -4.0859     3.3187     2.2505 F       
  32 H32           -2.5308     0.9590     2.2952 H       
  33 H33           -3.9155    -1.9937    -0.4724 H       
  34 H34           -6.1817    -1.0436    -0.3433 H       
  35 H35           -6.6225     0.9033     1.0965 H       
  36 H36           -1.0179    -0.5468     0.9879 H       
  37 H37            0.5935    -2.6457     0.3510 H       
  38 H38           -1.2794    -6.9951     1.0557 H       
  39 H39           -4.2199    -4.9464    -1.2980 H       
  40 H40           -5.4676    -7.3012    -2.8990 H       
  41 H41           -6.3527    -7.9266    -1.4870 H       
  42 H42           -6.2543    -6.1720    -1.7701 H       
  43 H43           -0.0755    -6.3047    -0.7618 H       
  44 H44            1.1862    -5.0532    -0.8614 H       
  45 H45            1.5555    -5.1714     1.5540 H       
  46 H46            0.2033    -6.3144     1.7369 H       
  47 H47            4.4968    -8.4688     1.3524 H       
  48 H48            3.5034    -9.5297     2.3800 H       
  49 H49            3.1482    -9.3876     0.6416 H       
  50 H50            1.5540    -7.8242     3.6277 H       
  51 H51            3.2908    -7.4574     3.7585 H       
  52 H52            2.1591    -6.2111     3.1803 H       
@<TRIPOS>BOND
   1    1    2 ar
   2    1    6 ar
   3    1   32 1
   4    2    3 ar
   5    2    7 1
   6    3    4 ar
   7    3   33 1
   8    4    5 ar
   9    4   34 1
  10    5    6 ar
  11    5   35 1
  12    6   28 1
  13    7    8 1
  14    7   36 1
  15    8    9 1
  16    8   10 2
  17    9   12 2
  18    9   37 1
  19   10   11 1
  20   11   12 1
  21   11   13 1
  22   12   21 1
  23   13   14 ar
  24   13   15 ar
  25   14   18 ar
  26   14   38 1
  27   15   16 ar
  28   15   39 1
  29   16   17 ar
  30   16   19 1
  31   17   18 ar
  32   18   20 1
  33   19   40 1
  34   19   41 1
  35   19   42 1
  36   21   22 1
  37   21   43 1
  38   21   44 1
  39   22   23 1
  40   22   45 1
  41   22   46 1
  42   23   24 am
  43   23   25 2
  44   24   26 1
  45   24   27 1
  46   26   47 1
  47   26   48 1
  48   26   49 1
  49   27   50 1
  50   27   51 1
  51   27   52 1
  52   28   29 1
  53   28   30 1
  54   28   31 1

#	End of record

