#	Name: ASD01912358
#	Creating user name:	WinNT
#	Creation time:	15. 06. 2019 19:59

#	Modifying user name:	WinNT
#	Modification time:	15. 06. 2019 19:59

#	Program:	/corina/corina34_cracker 3.40 0067  02.08.2006

@<TRIPOS>MOLECULE
ASD01912358
  41   43    0    0    0
SMALL
NO_CHARGES


@<TRIPOS>ATOM
   1 C1            -0.1042     1.5116    -0.7749 C.ar    
   2 C2            -0.0858     0.1183    -0.8872 C.ar    
   3 C3             1.1278    -0.5268    -1.0390 C.ar    
   4 C4             2.2863     0.2382    -1.0741 C.ar    
   5 C5             2.1967     1.6133    -0.9573 C.ar    
   6 N6             1.0294     2.2061    -0.8135 N.ar    
   7 C7             3.4526     2.4453    -0.9952 C.3     
   8 C8            -1.3527     2.1963    -0.6231 C.1     
   9 C9            -2.3763     2.7576    -0.4987 C.1     
  10 C10           -3.6248     3.4422    -0.3469 C.2     
  11 N11           -3.6046     7.1911     1.0674 N.am    
  12 C12           -4.8509     6.4191     1.1540 C.3     
  13 C13           -4.9563     5.5119    -0.0785 C.3     
  14 C14           -3.6476     4.7700    -0.2395 C.2     
  15 C15           -2.3656     5.5725    -0.2760 C.3     
  16 C16           -2.3251     6.4782     0.9614 C.3     
  17 O17           -1.1508     8.7842     1.3268 O.3     
  18 C18           -2.3840     9.2994     1.1383 C.2     
  19 C19           -2.2617    10.6539     1.0111 C.2     
  20 C20           -0.8955    10.9490     1.1300 C.2     
  21 C21           -0.2499     9.7755     1.3225 C.2     
  22 C22           -3.6352     8.5385     1.0796 C.2     
  23 O23           -4.7019     9.1233     1.0419 O.2     
  24 Br24           1.6162     9.5690     1.5482 Br      
  25 H25           -1.0060    -0.4461    -0.8555 H       
  26 H26            1.1737    -1.6022    -1.1279 H       
  27 H27            3.2491    -0.2368    -1.1912 H       
  28 H28            3.6709     2.7271    -2.0252 H       
  29 H29            3.3113     3.3441    -0.3948 H       
  30 H30            4.2841     1.8666    -0.5928 H       
  31 H31           -4.5479     2.8823    -0.3196 H       
  32 H32           -4.8407     5.8088     2.0571 H       
  33 H33           -5.7015     7.1001     1.1803 H       
  34 H34           -5.7683     4.7980     0.0597 H       
  35 H35           -5.1463     6.1175    -0.9647 H       
  36 H36           -1.5098     4.8976    -0.2650 H       
  37 H37           -2.3405     6.1831    -1.1786 H       
  38 H38           -1.5129     7.1981     0.8609 H       
  39 H39           -2.1699     5.8713     1.8534 H       
  40 H40           -3.0621    11.3609     0.8497 H       
  41 H41           -0.4439    11.9286     1.0777 H       
@<TRIPOS>BOND
   1    1    2 ar
   2    1    6 ar
   3    1    8 1
   4    2    3 ar
   5    2   25 1
   6    3    4 ar
   7    3   26 1
   8    4    5 ar
   9    4   27 1
  10    5    6 ar
  11    5    7 1
  12    7   28 1
  13    7   29 1
  14    7   30 1
  15    8    9 3
  16    9   10 1
  17   10   14 2
  18   10   31 1
  19   11   12 1
  20   11   16 1
  21   11   22 am
  22   12   13 1
  23   12   32 1
  24   12   33 1
  25   13   14 1
  26   13   34 1
  27   13   35 1
  28   14   15 1
  29   15   16 1
  30   15   36 1
  31   15   37 1
  32   16   38 1
  33   16   39 1
  34   17   18 1
  35   17   21 1
  36   18   19 2
  37   18   22 1
  38   19   20 1
  39   19   40 1
  40   20   21 2
  41   20   41 1
  42   21   24 1
  43   22   23 2

#	End of record

