#	Name: ASD04230157
#	Creating user name:	WinNT
#	Creation time:	15. 06. 2019 20:48

#	Modifying user name:	WinNT
#	Modification time:	15. 06. 2019 20:48

#	Program:	/corina/corina34_cracker 3.40 0067  02.08.2006

@<TRIPOS>MOLECULE
ASD04230157
  58   61    0    0    0
SMALL
NO_CHARGES


@<TRIPOS>ATOM
   1 C1             1.5733     4.3774     2.5260 C.ar    
   2 C2             2.6032     5.0312     3.1870 C.ar    
   3 C3             3.8691     4.5197     3.1792 C.ar    
   4 C4             4.1382     3.3285     2.4898 C.ar    
   5 C5             3.0914     2.6444     1.8456 C.ar    
   6 C6             1.8085     3.1881     1.8590 C.ar    
   7 C7             5.4568     2.8060     2.4413 C.2     
   8 C8             5.7033     1.7414     1.5846 C.2     
   9 C9             4.5755     1.2581     0.7672 C.2     
  10 O10            3.3236     1.4570     1.2366 O.3     
  11 C11            7.0358     1.1213     1.4958 C.2     
  12 N12            7.2440     0.0891     0.6546 N.am    
  13 O13            7.9486     1.5405     2.1817 O.2     
  14 C14            8.5332    -0.4264     0.4857 C.ar    
  15 C15            8.7146    -1.7871     0.2687 C.ar    
  16 C16            9.9869    -2.3016     0.1017 C.ar    
  17 C17           11.0852    -1.4677     0.1494 C.ar    
  18 C18           10.9135    -0.0989     0.3665 C.ar    
  19 C19            9.6297     0.4209     0.5292 C.ar    
  20 C20           12.0883     0.7967     0.4184 C.2     
  21 O21            4.7656     0.6985    -0.2964 O.2     
  22 C22           12.1768     2.0353    -0.1371 C.2     
  23 C23           13.4603     2.5358     0.1481 C.2     
  24 C24           14.1186     1.6014     0.8632 C.2     
  25 N25           13.2866     0.5280     1.0433 N.am    
  26 C26           13.5917    -0.6027     1.7102 C.2     
  27 O27           14.7790    -0.7169     2.3330 O.3     
  28 O28           12.7952    -1.5184     1.7491 O.2     
  29 C29           15.0398    -1.9628     3.0316 C.3     
  30 C30           14.9827    -3.1257     2.0390 C.3     
  31 C31           16.4279    -1.9071     3.6727 C.3     
  32 C32           13.9836    -2.1683     4.1193 C.3     
  33 O33            0.7911     2.5517     1.2198 O.3     
  34 C34           -0.4969     3.1680     1.2761 C.3     
  35 H35            0.5787     4.7980     2.5358 H       
  36 H36            2.4017     5.9532     3.7121 H       
  37 H37            4.6625     5.0322     3.7031 H       
  38 H38            6.2440     3.2237     3.0514 H       
  39 H39            6.4997    -0.2963     0.1663 H       
  40 H40            7.8588    -2.4448     0.2307 H       
  41 H41           10.1217    -3.3599    -0.0663 H       
  42 H42           12.0775    -1.8736     0.0192 H       
  43 H43            9.4908     1.4787     0.6974 H       
  44 H44           11.4033     2.5417    -0.6954 H       
  45 H45           13.8492     3.4975    -0.1525 H       
  46 H46           15.1291     1.6865     1.2349 H       
  47 H47           15.7352    -2.9793     1.2641 H       
  48 H48           15.1785    -4.0610     2.5635 H       
  49 H49           13.9938    -3.1653     1.5823 H       
  50 H50           16.4686    -1.0786     4.3798 H       
  51 H51           16.6237    -2.8424     4.1971 H       
  52 H52           17.1804    -1.7607     2.8978 H       
  53 H53           12.9947    -2.2079     3.6626 H       
  54 H54           14.1793    -3.1036     4.6438 H       
  55 H55           14.0243    -1.3398     4.8264 H       
  56 H56           -0.8129     3.2548     2.3157 H       
  57 H57           -0.4448     4.1604     0.8282 H       
  58 H58           -1.2154     2.5590     0.7276 H       
@<TRIPOS>BOND
   1    1    2 ar
   2    1    6 ar
   3    1   35 1
   4    2    3 ar
   5    2   36 1
   6    3    4 ar
   7    3   37 1
   8    4    5 ar
   9    4    7 1
  10    5    6 ar
  11    5   10 1
  12    6   33 1
  13    7    8 2
  14    7   38 1
  15    8    9 1
  16    8   11 1
  17    9   10 1
  18    9   21 2
  19   11   12 am
  20   11   13 2
  21   12   14 1
  22   12   39 1
  23   14   15 ar
  24   14   19 ar
  25   15   16 ar
  26   15   40 1
  27   16   17 ar
  28   16   41 1
  29   17   18 ar
  30   17   42 1
  31   18   19 ar
  32   18   20 1
  33   19   43 1
  34   20   22 2
  35   20   25 1
  36   22   23 1
  37   22   44 1
  38   23   24 2
  39   23   45 1
  40   24   25 1
  41   24   46 1
  42   25   26 am
  43   26   27 1
  44   26   28 2
  45   27   29 1
  46   29   30 1
  47   29   31 1
  48   29   32 1
  49   30   47 1
  50   30   48 1
  51   30   49 1
  52   31   50 1
  53   31   51 1
  54   31   52 1
  55   32   53 1
  56   32   54 1
  57   32   55 1
  58   33   34 1
  59   34   56 1
  60   34   57 1
  61   34   58 1

#	End of record

