#	Name: ASD01122003
#	Creating user name:	WinNT
#	Creation time:	15. 06. 2019 18:59

#	Modifying user name:	WinNT
#	Modification time:	15. 06. 2019 18:59

#	Program:	/corina/corina34_cracker 3.40 0067  02.08.2006

@<TRIPOS>MOLECULE
ASD01122003
  31   32    0    0    0
SMALL
NO_CHARGES


@<TRIPOS>ATOM
   1 C1            -0.0218     1.7565     0.0117 C.2     
   2 S2             0.0021    -0.0041     0.0020 S.3     
   3 C3            -1.7595    -0.0320     0.0187 C.2     
   4 C4            -2.2023     1.2393     0.0297 C.2     
   5 N5            -1.2498     2.1727     0.0313 N.2     
   6 N6             1.0985     2.5713     0.0054 N.pl3   
   7 C7            -3.6411     1.5764     0.0453 C.2     
   8 C8            -4.2062     2.6330     0.6878 C.2     
   9 C9            -5.5920     2.5685     0.4348 C.2     
  10 C10           -5.8015     1.4878    -0.3409 C.2     
  11 O11           -4.6195     0.8936    -0.5794 O.3     
  12 C12           -2.6226    -1.2674     0.0195 C.3     
  13 C13           -2.9280    -1.6771    -1.4226 C.3     
  14 C14           -3.8043    -2.9313    -1.4218 C.3     
  15 P15           -7.4105     0.9309    -0.9666 P.3     
  16 O16           -7.9550     1.9438    -1.8982 O.2     
  17 O17           -7.2298    -0.4688    -1.7414 O.3     
  18 O18           -8.4270     0.7345     0.2665 O.3     
  19 H19            1.9848     2.1772    -0.0052 H       
  20 H20            0.9967     3.5359     0.0115 H       
  21 H21           -3.6929     3.3776     1.2782 H       
  22 H22           -6.3433     3.2556     0.7952 H       
  23 H23           -2.0965    -2.0779     0.5239 H       
  24 H24           -3.5555    -1.0584     0.5431 H       
  25 H25           -3.4541    -0.8666    -1.9270 H       
  26 H26           -1.9951    -1.8861    -1.9463 H       
  27 H27           -3.2782    -3.7418    -0.9174 H       
  28 H28           -4.7372    -2.7224    -0.8981 H       
  29 H29           -4.0219    -3.2233    -2.4492 H       
  30 H30           -6.8760    -1.1804    -1.1905 H       
  31 H31           -9.3092     0.4369     0.0053 H       
@<TRIPOS>BOND
   1    1    2 1
   2    1    6 1
   3    1    5 2
   4    2    3 1
   5    3    4 2
   6    3   12 1
   7    4    5 1
   8    4    7 1
   9    6   19 1
  10    6   20 1
  11    7    8 2
  12    7   11 1
  13    8    9 1
  14    8   21 1
  15    9   10 2
  16    9   22 1
  17   10   11 1
  18   10   15 1
  19   12   13 1
  20   12   23 1
  21   12   24 1
  22   13   14 1
  23   13   25 1
  24   13   26 1
  25   14   27 1
  26   14   28 1
  27   14   29 1
  28   15   16 2
  29   15   17 1
  30   15   18 1
  31   17   30 1
  32   18   31 1

#	End of record

