#	Name: ASD03082126
#	Creating user name:	WinNT
#	Creation time:	15. 06. 2019 20:27

#	Modifying user name:	WinNT
#	Modification time:	15. 06. 2019 20:27

#	Program:	/corina/corina34_cracker 3.40 0067  02.08.2006

@<TRIPOS>MOLECULE
ASD03082126
  51   53    0    0    0
SMALL
NO_CHARGES


@<TRIPOS>ATOM
   1 C1            -0.0162     1.3826    -0.0087 C.ar    
   2 C2            -0.0605     0.0880    -0.5102 C.ar    
   3 C3            -1.2479    -0.6174    -0.4929 C.ar    
   4 C4            -2.3916    -0.0362     0.0227 C.ar    
   5 C5            -2.3512     1.2529     0.5225 C.ar    
   6 C6            -1.1662     1.9616     0.5135 C.ar    
   7 F7            -4.6620     0.9761     0.9885 F       
   8 F8            -3.3920     2.2187     2.4245 F       
   9 C9            -3.6005     1.8825     1.0826 C.3     
  10 F10           -3.9074     3.0372     0.3548 F       
  11 N11            1.1835     2.0989    -0.0242 N.pl3   
  12 C12            2.4012     1.4236     0.0801 C.2     
  13 N13            2.5450     0.1158     0.2976 N.2     
  14 N14            3.5894     1.9734    -0.0260 N.2     
  15 N15            4.5319     0.9459     0.1415 N.pl3   
  16 C16            3.8262    -0.1898     0.3396 C.2     
  17 C17            5.9905     1.0780     0.1047 C.3     
  18 C18            6.5030     1.4627     1.4940 C.3     
  19 C19            4.3926    -1.5386     0.5649 C.ar    
  20 C20            3.6235    -2.6868     0.3474 C.ar    
  21 C21            4.1914    -3.9245     0.5699 C.ar    
  22 N22            5.4399    -4.0327     0.9816 N.ar    
  23 C23            6.1994    -2.9762     1.1987 C.ar    
  24 C24            5.7137    -1.7007     0.9957 C.ar    
  25 C25            8.0263     1.6007     1.4555 C.3     
  26 C26            8.5388     1.9854     2.8448 C.3     
  27 C27           10.0392     2.1213     2.8069 C.2     
  28 N28           10.7139     2.4562     3.9245 N.am    
  29 O29           10.6394     1.9293     1.7707 O.2     
  30 C30           12.1725     2.5882     3.8876 C.3     
  31 H31            0.8325    -0.3664    -0.9134 H       
  32 H32           -1.2831    -1.6238    -0.8830 H       
  33 H33           -3.3188    -0.5900     0.0350 H       
  34 H34           -1.1352     2.9680     0.9042 H       
  35 H35            1.1704     3.0652    -0.1074 H       
  36 H36            6.4338     0.1287    -0.1961 H       
  37 H37            6.2673     1.8514    -0.6118 H       
  38 H38            6.0597     2.4120     1.7947 H       
  39 H39            6.2262     0.6893     2.2104 H       
  40 H40            2.6005    -2.6056     0.0107 H       
  41 H41            3.6055    -4.8167     0.4051 H       
  42 H42            7.2165    -3.1115     1.5358 H       
  43 H43            6.3412    -0.8402     1.1752 H       
  44 H44            8.4696     0.6514     1.1547 H       
  45 H45            8.3031     2.3741     0.7390 H       
  46 H46            8.0955     2.9347     3.1456 H       
  47 H47            8.2620     1.2120     3.5612 H       
  48 H48           10.2338     2.6097     4.7532 H       
  49 H49           12.6158     1.6390     3.5869 H       
  50 H50           12.4493     3.3617     3.1712 H       
  51 H51           12.5376     2.8624     4.8774 H       
@<TRIPOS>BOND
   1    1    2 ar
   2    1   11 1
   3    1    6 ar
   4    2    3 ar
   5    2   31 1
   6    3    4 ar
   7    3   32 1
   8    4    5 ar
   9    4   33 1
  10    5    6 ar
  11    5    9 1
  12    6   34 1
  13    7    9 1
  14    8    9 1
  15    9   10 1
  16   11   12 1
  17   11   35 1
  18   12   13 1
  19   12   14 2
  20   13   16 2
  21   14   15 1
  22   15   16 1
  23   15   17 1
  24   16   19 1
  25   17   18 1
  26   17   36 1
  27   17   37 1
  28   18   25 1
  29   18   38 1
  30   18   39 1
  31   19   20 ar
  32   19   24 ar
  33   20   21 ar
  34   20   40 1
  35   21   22 ar
  36   21   41 1
  37   22   23 ar
  38   23   24 ar
  39   23   42 1
  40   24   43 1
  41   25   26 1
  42   25   44 1
  43   25   45 1
  44   26   27 1
  45   26   46 1
  46   26   47 1
  47   27   28 am
  48   27   29 2
  49   28   30 1
  50   28   48 1
  51   30   49 1
  52   30   50 1
  53   30   51 1

#	End of record

