#	Name: ASD02030636
#	Creating user name:	WinNT
#	Creation time:	15. 06. 2019 20:15

#	Modifying user name:	WinNT
#	Modification time:	15. 06. 2019 20:15

#	Program:	/corina/corina34_cracker 3.40 0067  02.08.2006

@<TRIPOS>MOLECULE
ASD02030636
  63   66    0    0    0
SMALL
NO_CHARGES


@<TRIPOS>ATOM
   1 C1             0.1557     1.1570    -0.0901 C.ar    
   2 C2             0.0177    -0.2147    -0.0937 C.ar    
   3 C3             1.1470    -1.0182    -0.1607 C.ar    
   4 C4             2.4011    -0.4355    -0.2175 C.ar    
   5 C5             2.5381     0.9466    -0.2073 C.ar    
   6 C6             1.4143     1.7407    -0.1527 C.ar    
   7 C7             1.4897     3.2470    -0.1720 C.3     
   8 C8             3.9348     1.5091    -0.2425 C.3     
   9 C9             3.9243     2.9622    -0.7143 C.3     
  10 N10            2.8773     3.6750     0.0347 N.am    
  11 C11            0.9934     3.7642    -1.5237 C.3     
  12 O12            1.7369     3.1425    -2.5738 O.3     
  13 C13            1.4184     3.4947    -3.8480 C.ar    
  14 C14            3.1819     4.6813     0.8779 C.2     
  15 O15            4.3444     4.9675     1.0879 O.2     
  16 C16            2.1018     5.4372     1.5475 C.ar    
  17 C17            0.7695     4.2114    -6.4420 C.ar    
  18 C18            0.0914     4.7815    -5.3748 C.ar    
  19 C19            0.4150     4.4237    -4.0804 C.ar    
  20 C20            2.1007     2.9293    -4.9150 C.ar    
  21 C21            1.7771     3.2871    -6.2093 C.ar    
  22 C22            2.2792     5.9062     2.8488 C.ar    
  23 C23            0.9033     5.6887     0.8771 C.ar    
  24 C24           -0.1031     6.3943     1.5040 C.ar    
  25 C25            0.0703     6.8549     2.7959 C.ar    
  26 C26            1.2616     6.6144     3.4703 C.ar    
  27 O27            0.4510     4.5636    -7.7162 O.3     
  28 C28            1.1899     3.9369    -8.7665 C.3     
  29 O29            1.0221    -2.3715    -0.1700 O.3     
  30 C30           -0.2907    -2.9032     0.0189 C.3     
  31 C31           -0.9374    -3.1611    -1.3435 C.3     
  32 C32           -0.2016    -4.2169     0.7981 C.3     
  33 N33            1.4339     7.0860     4.7740 N.pl3   
  34 H34           -0.7230     1.7832    -0.0427 H       
  35 H35           -0.9643    -0.6616    -0.0442 H       
  36 H36            3.2802    -1.0605    -0.2698 H       
  37 H37            0.8631     3.6518     0.6227 H       
  38 H38            4.3664     1.4599     0.7572 H       
  39 H39            4.5433     0.9151    -0.9244 H       
  40 H40            4.8941     3.4201    -0.5194 H       
  41 H41            3.7049     3.0018    -1.7813 H       
  42 H42           -0.0643     3.5267    -1.6375 H       
  43 H43            1.1304     4.8445    -1.5719 H       
  44 H44           -0.6932     5.5012    -5.5559 H       
  45 H45           -0.1135     4.8670    -3.2495 H       
  46 H46            2.8852     2.2095    -4.7338 H       
  47 H47            2.3050     2.8431    -7.0403 H       
  48 H48            3.2057     5.7182     3.3710 H       
  49 H49            0.7641     5.3313    -0.1325 H       
  50 H50           -1.0294     6.5878     0.9836 H       
  51 H51           -0.7208     7.4072     3.2812 H       
  52 H52            2.2490     4.1694    -8.6544 H       
  53 H53            1.0477     2.8574    -8.7168 H       
  54 H54            0.8369     4.3060    -9.7294 H       
  55 H55           -0.8949    -2.1891     0.5786 H       
  56 H56           -1.0009    -2.2252    -1.8986 H       
  57 H57           -0.3333    -3.8752    -1.9031 H       
  58 H58           -1.9388    -3.5667    -1.1994 H       
  59 H59            0.2591    -4.0332     1.7687 H       
  60 H60           -1.2031    -4.6225     0.9422 H       
  61 H61            0.4025    -4.9310     0.2384 H       
  62 H62            2.2653     6.9181     5.2446 H       
  63 H63            0.7221     7.5813     5.2086 H       
@<TRIPOS>BOND
   1    1    2 ar
   2    1    6 ar
   3    1   34 1
   4    2    3 ar
   5    2   35 1
   6    3    4 ar
   7    3   29 1
   8    4    5 ar
   9    4   36 1
  10    5    6 ar
  11    5    8 1
  12    6    7 1
  13    7   10 1
  14    7   11 1
  15    7   37 1
  16    8    9 1
  17    8   38 1
  18    8   39 1
  19    9   10 1
  20    9   40 1
  21    9   41 1
  22   10   14 am
  23   11   12 1
  24   11   42 1
  25   11   43 1
  26   12   13 1
  27   13   20 ar
  28   13   19 ar
  29   14   15 2
  30   14   16 1
  31   16   23 ar
  32   16   22 ar
  33   17   18 ar
  34   17   21 ar
  35   17   27 1
  36   18   19 ar
  37   18   44 1
  38   19   45 1
  39   20   21 ar
  40   20   46 1
  41   21   47 1
  42   22   26 ar
  43   22   48 1
  44   23   24 ar
  45   23   49 1
  46   24   25 ar
  47   24   50 1
  48   25   26 ar
  49   25   51 1
  50   26   33 1
  51   27   28 1
  52   28   52 1
  53   28   53 1
  54   28   54 1
  55   29   30 1
  56   30   31 1
  57   30   32 1
  58   30   55 1
  59   31   56 1
  60   31   57 1
  61   31   58 1
  62   32   59 1
  63   32   60 1
  64   32   61 1
  65   33   62 1
  66   33   63 1

#	End of record

