#	Name: ASD00122066
#	Creating user name:	WinNT
#	Creation time:	15. 06. 2019 18:31

#	Modifying user name:	WinNT
#	Modification time:	15. 06. 2019 18:31

#	Program:	/corina/corina34_cracker 3.40 0067  02.08.2006

@<TRIPOS>MOLECULE
ASD00122066
  29   29    0    0    0
SMALL
NO_CHARGES


@<TRIPOS>ATOM
   1 C1            -0.0167     1.3772     0.0096 C.ar    
   2 C2             0.0021    -0.0041     0.0020 C.ar    
   3 C3             1.2080    -0.6802    -0.0131 C.ar    
   4 C4             2.3980     0.0239    -0.0207 C.ar    
   5 C5             2.3846     1.4052    -0.0127 C.ar    
   6 C6             1.1759     2.0860     0.0020 C.ar    
   7 O7             1.1601     3.4449     0.0095 O.3     
   8 C8            -0.1205     4.0787     0.0246 C.3     
   9 C9             0.0623     5.5978     0.0311 C.3     
  10 C10            1.2256    -2.1871    -0.0209 C.3     
  11 C11            1.2228    -4.4873    -3.0809 C.3     
  12 C12            1.2176    -2.6822    -1.4442 C.2     
  13 O13            1.1994    -1.8895    -2.3619 O.2     
  14 N14            1.2306    -4.0059    -1.6973 N.am    
  15 H15           -0.9589     1.9049     0.0169 H       
  16 H16           -0.9260    -0.5563     0.0083 H       
  17 H17            3.3387    -0.5065    -0.0325 H       
  18 H18            3.3144     1.9547    -0.0179 H       
  19 H19           -0.6822     3.7842    -0.8618 H       
  20 H20           -0.6659     3.7746     0.9180 H       
  21 H21            0.6077     5.9019    -0.8623 H       
  22 H22           -0.9145     6.0812     0.0427 H       
  23 H23            0.6240     5.8923     0.9176 H       
  24 H24            2.1247    -2.5426     0.4824 H       
  25 H25            0.3449    -2.5634     0.4997 H       
  26 H26            2.1034    -4.1110    -3.6015 H       
  27 H27            1.2354    -5.5772    -3.0865 H       
  28 H28            0.3237    -4.1318    -3.5843 H       
  29 H29            1.2451    -4.6399    -0.9633 H       
@<TRIPOS>BOND
   1    1    2 ar
   2    1    6 ar
   3    1   15 1
   4    2    3 ar
   5    2   16 1
   6    3    4 ar
   7    3   10 1
   8    4    5 ar
   9    4   17 1
  10    5    6 ar
  11    5   18 1
  12    6    7 1
  13    7    8 1
  14    8    9 1
  15    8   19 1
  16    8   20 1
  17    9   21 1
  18    9   22 1
  19    9   23 1
  20   10   12 1
  21   10   24 1
  22   10   25 1
  23   11   14 1
  24   11   26 1
  25   11   27 1
  26   11   28 1
  27   12   13 2
  28   12   14 am
  29   14   29 1

#	End of record

