#	Name: ASD00170416
#	Creating user name:	WinNT
#	Creation time:	15. 06. 2019 18:32

#	Modifying user name:	WinNT
#	Modification time:	15. 06. 2019 18:32

#	Program:	/corina/corina34_cracker 3.40 0067  02.08.2006

@<TRIPOS>MOLECULE
ASD00170416
  70   74    0    0    0
SMALL
NO_CHARGES


@<TRIPOS>ATOM
   1 C1            -0.4419     0.7742    -0.3106 C.2     
   2 C2            -0.6388    -0.5105     0.1462 C.2     
   3 C3            -1.9980    -0.9648    -0.0294 C.2     
   4 C4            -2.7870    -0.0458    -0.5993 C.2     
   5 S5            -1.8878     1.4223    -0.9375 S.3     
   6 C6            -2.4783    -2.3317     0.3853 C.3     
   7 C7            -4.2214    -0.2395    -0.8981 C.ar    
   8 C8            -5.1516     0.7338    -0.5292 C.ar    
   9 C9            -6.4890     0.5478    -0.8106 C.ar    
  10 C10           -6.9099    -0.6030    -1.4578 C.ar    
  11 C11           -5.9909    -1.5725    -1.8263 C.ar    
  12 C12           -4.6503    -1.3940    -1.5554 C.ar    
  13 N13            0.7605     1.4465    -0.2617 N.pl3   
  14 C14            0.4172    -1.3278     0.7451 C.2     
  15 C15            1.2143    -2.2417    -0.1009 C.ar    
  16 O16            0.6394    -1.2552     1.9402 O.2     
  17 C17            2.2927    -2.9405     0.4451 C.ar    
  18 C18            3.0321    -3.7917    -0.3487 C.ar    
  19 C19            2.7070    -3.9539    -1.6854 C.ar    
  20 C20            1.6385    -3.2631    -2.2328 C.ar    
  21 C21            0.8879    -2.4138    -1.4474 C.ar    
  22 Cl22           3.6428    -5.0269    -2.6786 Cl      
  23 N23           -2.2599    -2.5110     1.8269 N.3     
  24 C24           -3.3066    -1.8360     2.6059 C.3     
  25 C25           -3.1097    -0.3212     2.5195 C.3     
  26 C26           -4.1999     0.3819     3.3308 C.3     
  27 C27           -5.5734     0.0130     2.7667 C.3     
  28 C28           -5.7702    -1.5018     2.8531 C.3     
  29 C29           -4.6801    -2.2048     2.0417 C.3     
  30 C30           -2.1816    -3.9362     2.1743 C.3     
  31 C31           -0.9625    -4.5610     1.4929 C.3     
  32 C32           -0.8810    -6.0453     1.8547 C.3     
  33 C33           -0.7493    -6.1940     3.3717 C.3     
  34 C34           -1.9685    -5.5693     4.0531 C.3     
  35 C35           -2.0500    -4.0849     3.6913 C.3     
  36 F36           -8.2212    -0.7805    -1.7302 F       
  37 H37           -3.5416    -2.4256     0.1645 H       
  38 H38           -1.9246    -3.0934    -0.1636 H       
  39 H39           -4.8247     1.6307    -0.0241 H       
  40 H40           -7.2095     1.3002    -0.5257 H       
  41 H41           -6.3245    -2.4674    -2.3305 H       
  42 H42           -3.9349    -2.1502    -1.8430 H       
  43 H43            1.5240     1.0432     0.1802 H       
  44 H44            0.8431     2.3228    -0.6693 H       
  45 H45            2.5476    -2.8142     1.4870 H       
  46 H46            3.8665    -4.3327     0.0725 H       
  47 H47            1.3900    -3.3933    -3.2757 H       
  48 H48            0.0550    -1.8756    -1.8753 H       
  49 H49           -3.2449    -2.1516     3.6474 H       
  50 H50           -2.1312    -0.0584     2.9214 H       
  51 H51           -3.1714    -0.0056     1.4780 H       
  52 H52           -4.1382     0.0663     4.3723 H       
  53 H53           -4.0596     1.4610     3.2693 H       
  54 H54           -6.3500     0.5139     3.3447 H       
  55 H55           -5.6351     0.3286     1.7252 H       
  56 H56           -5.7085    -1.8174     3.8946 H       
  57 H57           -6.7488    -1.7645     2.4512 H       
  58 H58           -4.7418    -1.8892     1.0002 H       
  59 H59           -4.8203    -3.2840     2.1033 H       
  60 H60           -3.0859    -4.4426     1.8366 H       
  61 H61           -1.0563    -4.4550     0.4121 H       
  62 H62           -0.0583    -4.0545     1.8305 H       
  63 H63           -1.7852    -6.5518     1.5171 H       
  64 H64           -0.0124    -6.4905     1.3693 H       
  65 H65           -0.6913    -7.2515     3.6295 H       
  66 H66            0.1549    -5.6876     3.7094 H       
  67 H67           -2.8727    -6.0757     3.7155 H       
  68 H68           -1.8747    -5.6752     5.1339 H       
  69 H69           -1.1458    -3.5784     4.0289 H       
  70 H70           -2.9186    -3.6398     4.1767 H       
@<TRIPOS>BOND
   1    1    2 2
   2    1   13 1
   3    1    5 1
   4    2    3 1
   5    2   14 1
   6    3    4 2
   7    3    6 1
   8    4    5 1
   9    4    7 1
  10    6   23 1
  11    6   37 1
  12    6   38 1
  13    7    8 ar
  14    7   12 ar
  15    8    9 ar
  16    8   39 1
  17    9   10 ar
  18    9   40 1
  19   10   11 ar
  20   10   36 1
  21   11   12 ar
  22   11   41 1
  23   12   42 1
  24   13   43 1
  25   13   44 1
  26   14   15 1
  27   14   16 2
  28   15   17 ar
  29   15   21 ar
  30   17   18 ar
  31   17   45 1
  32   18   19 ar
  33   18   46 1
  34   19   20 ar
  35   19   22 1
  36   20   21 ar
  37   20   47 1
  38   21   48 1
  39   23   24 1
  40   23   30 1
  41   24   25 1
  42   24   29 1
  43   24   49 1
  44   25   26 1
  45   25   50 1
  46   25   51 1
  47   26   27 1
  48   26   52 1
  49   26   53 1
  50   27   28 1
  51   27   54 1
  52   27   55 1
  53   28   29 1
  54   28   56 1
  55   28   57 1
  56   29   58 1
  57   29   59 1
  58   30   31 1
  59   30   35 1
  60   30   60 1
  61   31   32 1
  62   31   61 1
  63   31   62 1
  64   32   33 1
  65   32   63 1
  66   32   64 1
  67   33   34 1
  68   33   65 1
  69   33   66 1
  70   34   35 1
  71   34   67 1
  72   34   68 1
  73   35   69 1
  74   35   70 1

#	End of record

