#	Name: ASD01913540
#	Creating user name:	WinNT
#	Creation time:	15. 06. 2019 20:01

#	Modifying user name:	WinNT
#	Modification time:	15. 06. 2019 20:01

#	Program:	/corina/corina34_cracker 3.40 0067  02.08.2006

@<TRIPOS>MOLECULE
ASD01913540
  38   40    0    0    0
SMALL
NO_CHARGES


@<TRIPOS>ATOM
   1 C1             0.6081     0.4688     1.3085 C.ar    
   2 C2             0.1815    -0.0462     0.0886 C.ar    
   3 C3             0.9852     0.1187    -1.0305 C.ar    
   4 N4             2.1373     0.7530    -0.9435 N.ar    
   5 C5             2.5706     1.2529     0.1974 C.ar    
   6 C6             1.8256     1.1290     1.3549 C.ar    
   7 C7            -0.9792    -2.0548    -0.1108 C.ar    
   8 C8             0.2294    -2.7452    -0.1336 C.ar    
   9 C9             0.2189    -4.1248    -0.2360 C.ar    
  10 N10           -0.9142    -4.7897    -0.3119 N.ar    
  11 C11           -2.0903    -4.1723    -0.2937 C.ar    
  12 C12           -2.1613    -2.7870    -0.1928 C.ar    
  13 C13           -3.3376    -4.9666    -0.3824 C.2     
  14 N14           -3.2758    -6.3094    -0.4808 N.am    
  15 O15           -1.0052    -0.7018    -0.0056 O.3     
  16 C16           -4.4507    -7.0671    -0.4538 C.ar    
  17 O17           -4.4165    -4.4075    -0.3663 O.2     
  18 C18           -5.6122    -6.5710    -1.0313 C.ar    
  19 C19           -6.7711    -7.3220    -1.0028 C.ar    
  20 C20           -6.7757    -8.5663    -0.4000 C.ar    
  21 C21           -5.6208    -9.0632     0.1764 C.ar    
  22 C22           -4.4572    -8.3203     0.1456 C.ar    
  23 C23           -5.6307   -10.4195     0.8332 C.3     
  24 H24            0.0032     0.3606     2.1967 H       
  25 H25            0.6637    -0.2772    -1.9825 H       
  26 H26            3.5206     1.7658     0.2276 H       
  27 H27            2.1883     1.5415     2.2848 H       
  28 H28            1.1651    -2.2095    -0.0723 H       
  29 H29            1.1544    -4.6641    -0.2544 H       
  30 H30           -3.1183    -2.2866    -0.1782 H       
  31 H31           -2.4164    -6.7501    -0.5704 H       
  32 H32           -5.6095    -5.5988    -1.5017 H       
  33 H33           -7.6747    -6.9368    -1.4517 H       
  34 H34           -7.6833    -9.1514    -0.3788 H       
  35 H35           -3.5557    -8.7088     0.5958 H       
  36 H36           -5.3740   -11.1814     0.0973 H       
  37 H37           -4.9015   -10.4363     1.6432 H       
  38 H38           -6.6239   -10.6217     1.2342 H       
@<TRIPOS>BOND
   1    1    2 ar
   2    1    6 ar
   3    1   24 1
   4    2    3 ar
   5    2   15 1
   6    3    4 ar
   7    3   25 1
   8    4    5 ar
   9    5    6 ar
  10    5   26 1
  11    6   27 1
  12    7    8 ar
  13    7   12 ar
  14    7   15 1
  15    8    9 ar
  16    8   28 1
  17    9   10 ar
  18    9   29 1
  19   10   11 ar
  20   11   12 ar
  21   11   13 1
  22   12   30 1
  23   13   14 am
  24   13   17 2
  25   14   16 1
  26   14   31 1
  27   16   18 ar
  28   16   22 ar
  29   18   19 ar
  30   18   32 1
  31   19   20 ar
  32   19   33 1
  33   20   21 ar
  34   20   34 1
  35   21   22 ar
  36   21   23 1
  37   22   35 1
  38   23   36 1
  39   23   37 1
  40   23   38 1

#	End of record

