#	Name: ASD03091894
#	Creating user name:	WinNT
#	Creation time:	15. 06. 2019 20:31

#	Modifying user name:	WinNT
#	Modification time:	15. 06. 2019 20:31

#	Program:	/corina/corina34_cracker 3.40 0067  02.08.2006

@<TRIPOS>MOLECULE
ASD03091894
  59   62    0    0    0
SMALL
NO_CHARGES


@<TRIPOS>ATOM
   1 C1            -0.9707     1.0746     0.0909 C.3     
   2 C2            -0.6737    -0.4268     0.0760 C.3     
   3 N3             0.0852    -0.7614    -1.1371 N.3     
   4 C4             1.3495    -0.0141    -1.1868 C.3     
   5 C5             1.0526     1.4873    -1.1719 C.3     
   6 N6             0.2937     1.8219     0.0412 N.3     
   7 C7             0.0669     3.1907     0.1252 C.ar    
   8 N8            -1.1722     3.6452     0.2332 N.ar    
   9 C9            -1.4308     4.9364     0.3160 C.ar    
  10 C10           -0.4102     5.8659     0.2922 C.ar    
  11 C11            0.9035     5.4307     0.1801 C.ar    
  12 C12            1.1439     4.0706     0.1009 C.ar    
  13 C13            0.3119    -2.1302    -1.2212 C.ar    
  14 N14            0.9836    -2.6314    -2.2498 N.ar    
  15 C15            1.1976    -3.9339    -2.3259 C.ar    
  16 C16            0.7230    -4.7734    -1.3360 C.ar    
  17 N17            0.0530    -4.2783    -0.3089 N.ar    
  18 C18           -0.1603    -2.9790    -0.2227 C.ar    
  19 C19            1.9599    -4.5041    -3.4942 C.3     
  20 N20            1.2143    -4.2576    -4.7309 N.am    
  21 C21            3.3323    -3.8336    -3.5838 C.3     
  22 C22            1.3736    -5.0777    -5.7886 C.2     
  23 C23            0.6066    -4.8241    -7.0608 C.3     
  24 O24            2.1341    -6.0196    -5.7165 O.2     
  25 C25            0.9677    -5.8919    -8.0954 C.3     
  26 C26            0.2007    -5.6384    -9.3676 C.ar    
  27 C27            0.7420    -4.8321   -10.3510 C.ar    
  28 C28            0.0384    -4.5991   -11.5200 C.ar    
  29 C29           -1.2094    -5.1753   -11.7028 C.ar    
  30 C30           -1.7487    -5.9823   -10.7160 C.ar    
  31 C31           -1.0413    -6.2172    -9.5522 C.ar    
  32 F32            0.5667    -3.8108   -12.4815 F       
  33 F33           -1.8982    -4.9490   -12.8428 F       
  34 H34           -1.5803     1.3333    -0.7749 H       
  35 H35           -1.5084     1.3299     1.0040 H       
  36 H36           -0.0871    -0.6902     0.9561 H       
  37 H37           -1.6111    -0.9830     0.0835 H       
  38 H38            1.9591    -0.2728    -0.3210 H       
  39 H39            1.8872    -0.2694    -2.0999 H       
  40 H40            1.9900     2.0435    -1.1795 H       
  41 H41            0.4660     1.7507    -2.0521 H       
  42 H42           -2.4541     5.2705     0.4031 H       
  43 H43           -0.6314     6.9208     0.3598 H       
  44 H44            1.7195     6.1378     0.1589 H       
  45 H45            2.1539     3.6973     0.0172 H       
  46 H46            0.8993    -5.8369    -1.4015 H       
  47 H47           -0.7036    -2.5747     0.6185 H       
  48 H48            2.0884    -5.5775    -3.3551 H       
  49 H49            0.6060    -3.5043    -4.7886 H       
  50 H50            3.8870    -4.0169    -2.6636 H       
  51 H51            3.8837    -4.2460    -4.4288 H       
  52 H52            3.2038    -2.7601    -3.7228 H       
  53 H53           -0.4630    -4.8651    -6.8545 H       
  54 H54            0.8641    -3.8392    -7.4501 H       
  55 H55            2.0372    -5.8510    -8.3016 H       
  56 H56            0.7102    -6.8769    -7.7060 H       
  57 H57            1.7139    -4.3836   -10.2072 H       
  58 H58           -2.7206    -6.4316   -10.8573 H       
  59 H59           -1.4626    -6.8469    -8.7826 H       
@<TRIPOS>BOND
   1    1    2 1
   2    1    6 1
   3    1   34 1
   4    1   35 1
   5    2    3 1
   6    2   36 1
   7    2   37 1
   8    3    4 1
   9    3   13 1
  10    4    5 1
  11    4   38 1
  12    4   39 1
  13    5    6 1
  14    5   40 1
  15    5   41 1
  16    6    7 1
  17    7    8 ar
  18    7   12 ar
  19    8    9 ar
  20    9   10 ar
  21    9   42 1
  22   10   11 ar
  23   10   43 1
  24   11   12 ar
  25   11   44 1
  26   12   45 1
  27   13   14 ar
  28   13   18 ar
  29   14   15 ar
  30   15   16 ar
  31   15   19 1
  32   16   17 ar
  33   16   46 1
  34   17   18 ar
  35   18   47 1
  36   19   20 1
  37   19   21 1
  38   19   48 1
  39   20   22 am
  40   20   49 1
  41   21   50 1
  42   21   51 1
  43   21   52 1
  44   22   23 1
  45   22   24 2
  46   23   25 1
  47   23   53 1
  48   23   54 1
  49   25   26 1
  50   25   55 1
  51   25   56 1
  52   26   27 ar
  53   26   31 ar
  54   27   28 ar
  55   27   57 1
  56   28   29 ar
  57   28   32 1
  58   29   30 ar
  59   29   33 1
  60   30   31 ar
  61   30   58 1
  62   31   59 1

#	End of record

