#	Name: ASD01410269
#	Creating user name:	WinNT
#	Creation time:	15. 06. 2019 19:17

#	Modifying user name:	WinNT
#	Modification time:	15. 06. 2019 19:17

#	Program:	/corina/corina34_cracker 3.40 0067  02.08.2006

@<TRIPOS>MOLECULE
ASD01410269
  34   35    0    0    0
SMALL
NO_CHARGES


@<TRIPOS>ATOM
   1 C1            -0.0169     1.3747    -0.0121 C.ar    
   2 C2             0.0007    -0.0061    -0.0506 C.ar    
   3 C3            -1.1865    -0.7223    -0.0541 C.ar    
   4 C4            -2.3967    -0.0626    -0.0187 C.ar    
   5 C5            -2.4282     1.3339     0.0209 C.ar    
   6 C6            -1.2265     2.0541     0.0296 C.ar    
   7 O7            -1.2453     3.4104     0.0684 O.3     
   8 Cl8            1.4758     2.2609    -0.0086 Cl      
   9 C9            -3.7197     2.0458     0.0584 C.2     
  10 N10           -4.8735     1.3492     0.0545 N.am    
  11 C11           -6.2058     3.3446    -0.2217 C.ar    
  12 C12           -6.0969     2.0201     0.1751 C.ar    
  13 C13           -7.2084     1.3585     0.6937 C.ar    
  14 C14           -8.4159     2.0269     0.8102 C.ar    
  15 C15           -8.5168     3.3474     0.4120 C.ar    
  16 C16           -7.4147     4.0043    -0.1025 C.ar    
  17 Cl17          -1.1490    -2.4572    -0.1038 Cl      
  18 O18           -3.7433     3.2611     0.0928 O.2     
  19 C19           -1.2418     4.0226     1.3596 C.3     
  20 O20           -7.1079     0.0598     1.0840 O.3     
  21 C21           -8.2880    -0.5539     1.6061 C.3     
  22 H22            0.9443    -0.5306    -0.0785 H       
  23 H23           -3.3190    -0.6244    -0.0220 H       
  24 H24           -4.8565     0.3832    -0.0317 H       
  25 H25           -5.3452     3.8616    -0.6199 H       
  26 H26           -9.2789     1.5166     1.2118 H       
  27 H27           -9.4593     3.8668     0.5029 H       
  28 H28           -7.4982     5.0357    -0.4119 H       
  29 H29           -2.1221     3.7016     1.9163 H       
  30 H30           -0.3424     3.7266     1.8996 H       
  31 H31           -1.2581     5.1068     1.2477 H       
  32 H32           -8.6215    -0.0079     2.4885 H       
  33 H33           -9.0724    -0.5354     0.8494 H       
  34 H34           -8.0704    -1.5866     1.8786 H       
@<TRIPOS>BOND
   1    1    2 ar
   2    1    8 1
   3    1    6 ar
   4    2    3 ar
   5    2   22 1
   6    3    4 ar
   7    3   17 1
   8    4    5 ar
   9    4   23 1
  10    5    6 ar
  11    5    9 1
  12    6    7 1
  13    7   19 1
  14    9   10 am
  15    9   18 2
  16   10   12 1
  17   10   24 1
  18   11   12 ar
  19   11   16 ar
  20   11   25 1
  21   12   13 ar
  22   13   14 ar
  23   13   20 1
  24   14   15 ar
  25   14   26 1
  26   15   16 ar
  27   15   27 1
  28   16   28 1
  29   19   29 1
  30   19   30 1
  31   19   31 1
  32   20   21 1
  33   21   32 1
  34   21   33 1
  35   21   34 1

#	End of record

