#	Name: ASD07300836
#	Creating user name:	WinNT
#	Creation time:	15. 06. 2019 21:10

#	Modifying user name:	WinNT
#	Modification time:	15. 06. 2019 21:10

#	Program:	/corina/corina34_cracker 3.40 0067  02.08.2006

@<TRIPOS>MOLECULE
ASD07300836
  47   51    0    0    0
SMALL
NO_CHARGES


@<TRIPOS>ATOM
   1 N1            -0.3498     1.4273     0.1400 N.am    
   2 C2            -0.2028     0.0799     0.0776 C.2     
   3 N3             0.9576    -0.5055     0.0250 N.2     
   4 C4             2.1044     0.1922     0.0286 C.2     
   5 C5             2.0526     1.5937     0.0907 C.2     
   6 C6             0.7381     2.2328     0.1497 C.2     
   7 N7             3.4192    -0.1457    -0.0168 N.pl3   
   8 N8             4.1774     1.0314     0.0167 N.2     
   9 C9             3.3798     2.0617     0.0801 C.2     
  10 O10            0.6266     3.4448     0.2046 O.2     
  11 C11            3.9528    -1.5082    -0.0880 C.3     
  12 C12            4.7822    -1.6675    -1.3660 C.3     
  13 C13            5.3999    -3.0680    -1.3928 C.3     
  14 O14            6.1963    -3.2585    -0.2217 O.3     
  15 C15            5.4647    -3.1679     1.0025 C.3     
  16 C16            4.8495    -1.7714     1.1256 C.3     
  17 C17           -1.4415    -0.7784     0.0692 C.3     
  18 C18           -1.7149    -1.4786     1.4108 C.3     
  19 C19           -2.1265    -2.7138     0.5925 C.3     
  20 C20           -1.2168    -2.1785    -0.5260 C.3     
  21 C21           -1.7953    -2.3472    -1.9072 C.ar    
  22 C22           -3.1567    -2.2084    -2.0991 C.ar    
  23 C23           -3.6789    -2.3657    -3.3741 C.ar    
  24 C24           -2.8081    -2.6579    -4.4124 C.ar    
  25 C25           -1.4578    -2.7819    -4.1442 C.ar    
  26 N26           -0.9957    -2.6204    -2.9198 N.ar    
  27 H27           -1.2383     1.8152     0.1739 H       
  28 H28            3.6856     3.0968     0.1180 H       
  29 H29            3.1294    -2.2223    -0.0963 H       
  30 H30            4.1391    -1.5363    -2.2362 H       
  31 H31            5.5748    -0.9194    -1.3814 H       
  32 H32            4.6064    -3.8149    -1.4182 H       
  33 H33            6.0259    -3.1722    -2.2790 H       
  34 H34            4.6720    -3.9161     1.0084 H       
  35 H35            6.1373    -3.3441     1.8419 H       
  36 H36            5.6435    -1.0254     1.1605 H       
  37 H37            4.2547    -1.7145     2.0372 H       
  38 H38           -2.3107    -0.2631    -0.3396 H       
  39 H39           -0.8198    -1.6324     2.0134 H       
  40 H40           -2.5355    -1.0356     1.9752 H       
  41 H41           -1.7835    -3.6555     1.0210 H       
  42 H42           -3.1833    -2.7289     0.3261 H       
  43 H43           -0.1855    -2.5237    -0.4528 H       
  44 H44           -3.8059    -1.9807    -1.2666 H       
  45 H45           -4.7389    -2.2633    -3.5538 H       
  46 H46           -3.1800    -2.7873    -5.4180 H       
  47 H47           -0.7728    -3.0098    -4.9475 H       
@<TRIPOS>BOND
   1    1    2 1
   2    1    6 am
   3    1   27 1
   4    2    3 2
   5    2   17 1
   6    3    4 1
   7    4    5 2
   8    4    7 1
   9    5    6 1
  10    5    9 1
  11    6   10 2
  12    7    8 1
  13    7   11 1
  14    8    9 2
  15    9   28 1
  16   11   12 1
  17   11   16 1
  18   11   29 1
  19   12   13 1
  20   12   30 1
  21   12   31 1
  22   13   14 1
  23   13   32 1
  24   13   33 1
  25   14   15 1
  26   15   16 1
  27   15   34 1
  28   15   35 1
  29   16   36 1
  30   16   37 1
  31   17   18 1
  32   17   20 1
  33   17   38 1
  34   18   19 1
  35   18   39 1
  36   18   40 1
  37   19   20 1
  38   19   41 1
  39   19   42 1
  40   20   21 1
  41   20   43 1
  42   21   22 ar
  43   21   26 ar
  44   22   23 ar
  45   22   44 1
  46   23   24 ar
  47   23   45 1
  48   24   25 ar
  49   24   46 1
  50   25   26 ar
  51   25   47 1

#	End of record

