#	Name: ASD05730152
#	Creating user name:	WinNT
#	Creation time:	15. 06. 2019 21:02

#	Modifying user name:	WinNT
#	Modification time:	15. 06. 2019 21:02

#	Program:	/corina/corina34_cracker 3.40 0067  02.08.2006

@<TRIPOS>MOLECULE
ASD05730152
  88   94    0    0    0
SMALL
NO_CHARGES


@<TRIPOS>ATOM
   1 N1            -0.0118     1.3947     0.0612 N.pl3   
   2 C2             0.0057    -0.0044     0.0405 C.ar    
   3 C3            -1.0324    -0.7031    -0.5619 C.ar    
   4 C4            -1.0149    -2.0835    -0.5827 C.ar    
   5 C5             0.0408    -2.7733    -0.0013 C.ar    
   6 C6             1.0787    -2.0748     0.6015 C.ar    
   7 C7             1.0641    -0.6942     0.6173 C.ar    
   8 N8             0.0586    -4.1737    -0.0224 N.pl3   
   9 C9             1.2583    -4.8474    -0.1422 C.ar    
  10 N10            1.2605    -6.1684    -0.0467 N.ar    
  11 C11            2.3945    -6.8510    -0.1571 C.ar    
  12 C12            3.5946    -6.1409    -0.3778 C.ar    
  13 C13            3.5394    -4.7420    -0.4714 C.ar    
  14 N14            2.3672    -4.1469    -0.3544 N.ar    
  15 N15            2.4060    -8.2195    -0.0590 N.am    
  16 C16            3.5590    -8.9066    -0.1713 C.2     
  17 C17            4.8215    -8.2008    -0.4000 C.2     
  18 C18            4.8196    -6.8352    -0.5006 C.2     
  19 C19            1.1516    -8.9405     0.1706 C.3     
  20 O20            3.5516   -10.1214    -0.0818 O.2     
  21 C21            6.0895    -8.9575    -0.5220 C.ar    
  22 C22            1.0833     2.1316     0.6966 C.3     
  23 C23            0.5234    -9.2900    -1.1539 C.2     
  24 C24            2.2322     2.3507    -0.3052 C.3     
  25 C25            6.6940    -9.4978     0.6124 C.ar    
  26 N26           -0.6456    -9.9599    -1.1894 N.am    
  27 C27           -1.3656   -10.3629    -2.4062 C.3     
  28 C28            6.6801    -9.1371    -1.7727 C.ar    
  29 C29            7.8609    -9.8426    -1.8799 C.ar    
  30 C30            8.4588   -10.3719    -0.7500 C.ar    
  31 C31            7.8751   -10.2017     0.4924 C.ar    
  32 C32            6.0296    -8.5621    -3.0044 C.3     
  33 S33            9.9661   -11.2728    -0.8952 S.o     
  34 C34           11.2305    -9.9849    -0.7121 C.3     
  35 O35            9.9587   -12.0971     0.2623 O.2     
  36 N36            2.3789     3.8115    -0.4843 N.3     
  37 C37            1.8503     4.4272     0.7598 C.3     
  38 C38            0.6163     3.5513     1.0922 C.3     
  39 C39           12.6179   -10.5928    -0.9400 C.3     
  40 C40           13.6712    -9.4846    -0.8615 C.3     
  41 O41           13.3731    -8.4765    -1.8295 O.3     
  42 C42           12.1081    -7.8398    -1.6382 C.3     
  43 C43           10.9920    -8.8819    -1.7479 C.3     
  44 C44           -2.6581   -11.0773    -1.9584 C.3     
  45 C45           -2.8725   -10.5382    -0.5194 C.3     
  46 C46           -1.4107   -10.4156    -0.0146 C.3     
  47 O47            1.0697    -8.9684    -2.1878 O.2     
  48 H48           -0.7470     1.8766    -0.3488 H       
  49 H49           -1.8537    -0.1666    -1.0138 H       
  50 H50           -1.8224    -2.6268    -1.0508 H       
  51 H51            1.8996    -2.6113     1.0540 H       
  52 H52            1.8713    -0.1510     1.0861 H       
  53 H53           -0.7717    -4.6704     0.0472 H       
  54 H54            4.4365    -4.1648    -0.6393 H       
  55 H55            5.7404    -6.2967    -0.6691 H       
  56 H56            1.3548    -9.8545     0.7287 H       
  57 H57            0.4695    -8.3104     0.7413 H       
  58 H58            1.4431     1.5923     1.5728 H       
  59 H59            3.1563     1.9306     0.0919 H       
  60 H60            1.9879     1.8824    -1.2586 H       
  61 H61            6.2392    -9.3655     1.5829 H       
  62 H62           -1.6148    -9.4823    -2.9983 H       
  63 H63           -0.7496   -11.0444    -2.9930 H       
  64 H64            8.3192    -9.9824    -2.8478 H       
  65 H65            8.3466   -10.6168     1.3709 H       
  66 H66            6.4040    -7.5528    -3.1755 H       
  67 H67            6.2650    -9.1878    -3.8654 H       
  68 H68            4.9493    -8.5298    -2.8633 H       
  69 H69           11.1778    -9.5623     0.2912 H       
  70 H70            3.3453     4.0627    -0.6298 H       
  71 H71            2.5883     4.3717     1.5601 H       
  72 H72            1.5520     5.4602     0.5811 H       
  73 H73           -0.2440     3.8546     0.4954 H       
  74 H74            0.3850     3.5987     2.1563 H       
  75 H75           12.8183   -11.3408    -0.1729 H       
  76 H76           12.6536   -11.0603    -1.9240 H       
  77 H77           13.6624    -9.0448     0.1358 H       
  78 H78           14.6563    -9.9043    -1.0653 H       
  79 H79           12.0790    -7.3785    -0.6511 H       
  80 H80           11.9673    -7.0745    -2.4015 H       
  81 H81           10.9949    -9.3148    -2.7483 H       
  82 H82           10.0297    -8.4063    -1.5586 H       
  83 H83           -3.4937   -10.8019    -2.6019 H       
  84 H84           -2.5177   -12.1582    -1.9484 H       
  85 H85           -3.3665    -9.5667    -0.5357 H       
  86 H86           -3.4343   -11.2503     0.0850 H       
  87 H87           -1.0461   -11.3832     0.3303 H       
  88 H88           -1.3463    -9.6780     0.7853 H       
@<TRIPOS>BOND
   1    1    2 1
   2    1   22 1
   3    1   48 1
   4    2    3 ar
   5    2    7 ar
   6    3    4 ar
   7    3   49 1
   8    4    5 ar
   9    4   50 1
  10    5    6 ar
  11    5    8 1
  12    6    7 ar
  13    6   51 1
  14    7   52 1
  15    8    9 1
  16    8   53 1
  17    9   10 ar
  18    9   14 ar
  19   10   11 ar
  20   11   12 ar
  21   11   15 1
  22   12   13 ar
  23   12   18 1
  24   13   14 ar
  25   13   54 1
  26   15   16 am
  27   15   19 1
  28   16   17 1
  29   16   20 2
  30   17   18 2
  31   17   21 1
  32   18   55 1
  33   19   23 1
  34   19   56 1
  35   19   57 1
  36   21   25 ar
  37   21   28 ar
  38   22   24 1
  39   22   38 1
  40   22   58 1
  41   23   47 2
  42   23   26 am
  43   24   36 1
  44   24   59 1
  45   24   60 1
  46   25   31 ar
  47   25   61 1
  48   26   27 1
  49   26   46 1
  50   27   44 1
  51   27   62 1
  52   27   63 1
  53   28   29 ar
  54   28   32 1
  55   29   30 ar
  56   29   64 1
  57   30   31 ar
  58   30   33 1
  59   31   65 1
  60   32   66 1
  61   32   67 1
  62   32   68 1
  63   33   34 1
  64   33   35 2
  65   34   39 1
  66   34   43 1
  67   34   69 1
  68   36   37 1
  69   36   70 1
  70   37   38 1
  71   37   71 1
  72   37   72 1
  73   38   73 1
  74   38   74 1
  75   39   40 1
  76   39   75 1
  77   39   76 1
  78   40   41 1
  79   40   77 1
  80   40   78 1
  81   41   42 1
  82   42   43 1
  83   42   79 1
  84   42   80 1
  85   43   81 1
  86   43   82 1
  87   44   45 1
  88   44   83 1
  89   44   84 1
  90   45   46 1
  91   45   85 1
  92   45   86 1
  93   46   87 1
  94   46   88 1

#	End of record

