#	Name: ASD01140376
#	Creating user name:	WinNT
#	Creation time:	15. 06. 2019 19:00

#	Modifying user name:	WinNT
#	Modification time:	15. 06. 2019 19:00

#	Program:	/corina/corina34_cracker 3.40 0067  02.08.2006

@<TRIPOS>MOLECULE
ASD01140376
  40   43    0    0    0
SMALL
NO_CHARGES


@<TRIPOS>ATOM
   1 S1            -0.0218     1.7597     0.0117 S.3     
   2 C2             0.0021    -0.0041     0.0020 C.2     
   3 N3             1.2501    -0.3826    -0.0119 N.2     
   4 N4             2.1146     0.5375    -0.0152 N.2     
   5 C5             1.6909     1.7654    -0.0046 C.2     
   6 O6             2.4758     2.8704    -0.0066 O.3     
   7 C7             6.0929     3.6688    -0.6237 C.3     
   8 C8             4.5689     3.8287    -0.7439 C.3     
   9 C9             3.8894     2.6620    -0.0211 C.3     
  10 C10            4.4062     2.5740     1.4178 C.3     
  11 C11            5.9412     2.4991     1.3915 C.3     
  12 C12            6.3449     1.4348     0.3452 C.3     
  13 C13            6.4452     2.2078    -0.9864 C.3     
  14 N14            6.4352     3.7798     0.8193 N.3     
  15 C15            7.8858     3.9156     1.0073 C.3     
  16 C16           -1.1793    -0.8928     0.0090 C.ar    
  17 C17           -1.0133    -2.2786    -0.0001 C.ar    
  18 C18           -2.1189    -3.1031     0.0064 C.ar    
  19 C19           -3.3928    -2.5580     0.0219 C.ar    
  20 C20           -3.5634    -1.1828     0.0309 C.ar    
  21 C21           -2.4646    -0.3491     0.0304 C.ar    
  22 F22           -4.4724    -3.3702     0.0277 F       
  23 H23            6.6311     4.3880    -1.2411 H       
  24 H24            4.2632     4.7695    -0.2861 H       
  25 H25            4.2830     3.8227    -1.7957 H       
  26 H26            4.1135     1.7320    -0.5435 H       
  27 H27            4.0933     3.4584     1.9728 H       
  28 H28            4.0052     1.6801     1.8956 H       
  29 H29            6.3589     2.2884     2.3760 H       
  30 H30            7.3090     0.9963     0.6027 H       
  31 H31            5.5809     0.6604     0.2776 H       
  32 H32            5.7304     1.8133    -1.7086 H       
  33 H33            7.4585     2.1493    -1.3835 H       
  34 H34            8.2363     4.8116     0.4950 H       
  35 H35            8.1085     3.9949     2.0714 H       
  36 H36            8.3890     3.0410     0.5950 H       
  37 H37           -0.0209    -2.7044    -0.0126 H       
  38 H38           -1.9915    -4.1756    -0.0010 H       
  39 H39           -4.5584    -0.7630     0.0427 H       
  40 H40           -2.5985     0.7225     0.0419 H       
@<TRIPOS>BOND
   1    1    2 1
   2    1    5 1
   3    2    3 2
   4    2   16 1
   5    3    4 1
   6    4    5 2
   7    5    6 1
   8    6    9 1
   9    7    8 1
  10    7   13 1
  11    7   14 1
  12    7   23 1
  13    8    9 1
  14    8   24 1
  15    8   25 1
  16    9   10 1
  17    9   26 1
  18   10   11 1
  19   10   27 1
  20   10   28 1
  21   11   12 1
  22   11   14 1
  23   11   29 1
  24   12   13 1
  25   12   30 1
  26   12   31 1
  27   13   32 1
  28   13   33 1
  29   14   15 1
  30   15   34 1
  31   15   35 1
  32   15   36 1
  33   16   17 ar
  34   16   21 ar
  35   17   18 ar
  36   17   37 1
  37   18   19 ar
  38   18   38 1
  39   19   20 ar
  40   19   22 1
  41   20   21 ar
  42   20   39 1
  43   21   40 1

#	End of record

