#	Name: ASD01841088
#	Creating user name:	WinNT
#	Creation time:	15. 06. 2019 19:38

#	Modifying user name:	WinNT
#	Modification time:	15. 06. 2019 19:38

#	Program:	/corina/corina34_cracker 3.40 0067  02.08.2006

@<TRIPOS>MOLECULE
ASD01841088
  39   41    0    0    0
SMALL
NO_CHARGES


@<TRIPOS>ATOM
   1 C1            -0.2342     1.4161     0.2995 C.ar    
   2 C2            -0.2532     0.0188     0.3719 C.ar    
   3 C3             0.9222    -0.6498     0.7827 C.ar    
   4 C4             2.0351     0.0985     1.0941 C.ar    
   5 C5             1.9762     1.4807     0.9977 C.ar    
   6 N6             0.8769     2.0874     0.6153 N.ar    
   7 C7            -1.5424    -0.5350    -0.0064 C.2     
   8 C8            -2.4648     0.3969    -0.3516 C.2     
   9 S9            -1.8033     2.0147    -0.2259 S.3     
  10 C10           -3.7906     0.1016    -0.7568 C.2     
  11 O11           -4.1670    -1.0552    -0.8121 O.2     
  12 N12           -4.6346     1.1012    -1.0809 N.am    
  13 C13           -6.0049     0.7960    -1.4996 C.3     
  14 C14           -6.7349     2.0789    -1.8032 C.ar    
  15 C15           -6.5419     2.7139    -3.0177 C.ar    
  16 C16           -7.2139     3.8940    -3.2971 C.ar    
  17 C17           -8.0772     4.4358    -2.3609 C.ar    
  18 C18           -8.2689     3.7992    -1.1469 C.ar    
  19 C19           -7.6012     2.6179    -0.8711 C.ar    
  20 F20           -9.1113     4.3281    -0.2326 F       
  21 F21           -7.0258     4.5148    -4.4821 F       
  22 F22           -5.6985     2.1843    -3.9306 F       
  23 C23            3.1943     2.2998     1.3386 C.3     
  24 C24            0.9566    -2.1534     0.8785 C.3     
  25 N25           -1.8060    -1.8975    -0.0141 N.pl3   
  26 H26            2.9464    -0.3869     1.4110 H       
  27 H27           -4.3348     2.0226    -1.0368 H       
  28 H28           -5.9813     0.1713    -2.3926 H       
  29 H29           -6.5200     0.2656    -0.6987 H       
  30 H30           -8.6009     5.3552    -2.5774 H       
  31 H31           -7.7544     2.1196     0.0747 H       
  32 H32            3.7986     2.4424     0.4427 H       
  33 H33            2.8831     3.2703     1.7251 H       
  34 H34            3.7824     1.7792     2.0944 H       
  35 H35            1.1670    -2.5754    -0.1042 H       
  36 H36            1.7362    -2.4552     1.5780 H       
  37 H37           -0.0085    -2.5171     1.2311 H       
  38 H38           -1.0758    -2.5325    -0.0813 H       
  39 H39           -2.7206    -2.2149     0.0478 H       
@<TRIPOS>BOND
   1    1    2 ar
   2    1    6 ar
   3    1    9 1
   4    2    3 ar
   5    2    7 1
   6    3    4 ar
   7    3   24 1
   8    4    5 ar
   9    4   26 1
  10    5    6 ar
  11    5   23 1
  12    7    8 2
  13    7   25 1
  14    8    9 1
  15    8   10 1
  16   10   11 2
  17   10   12 am
  18   12   13 1
  19   12   27 1
  20   13   14 1
  21   13   28 1
  22   13   29 1
  23   14   15 ar
  24   14   19 ar
  25   15   16 ar
  26   15   22 1
  27   16   17 ar
  28   16   21 1
  29   17   18 ar
  30   17   30 1
  31   18   19 ar
  32   18   20 1
  33   19   31 1
  34   23   32 1
  35   23   33 1
  36   23   34 1
  37   24   35 1
  38   24   36 1
  39   24   37 1
  40   25   38 1
  41   25   39 1

#	End of record

