#	Name: ASD03082347
#	Creating user name:	WinNT
#	Creation time:	15. 06. 2019 20:27

#	Modifying user name:	WinNT
#	Modification time:	15. 06. 2019 20:27

#	Program:	/corina/corina34_cracker 3.40 0067  02.08.2006

@<TRIPOS>MOLECULE
ASD03082347
  46   48    0    0    0
SMALL
NO_CHARGES


@<TRIPOS>ATOM
   1 C1            -3.8263    -0.8091     0.0282 C.ar    
   2 C2            -2.7359    -0.2792     0.7054 C.ar    
   3 C3            -2.8869     0.8713     1.4692 C.ar    
   4 C4            -4.1206     1.4866     1.5542 C.ar    
   5 C5            -5.2075     0.9579     0.8794 C.ar    
   6 C6            -5.0601    -0.1901     0.1157 C.ar    
   7 F7            -6.1219    -0.7044    -0.5426 F       
   8 F8            -6.4133     1.5612     0.9649 F       
   9 N9            -1.4875    -0.9032     0.6190 N.pl3   
  10 C10           -1.4087    -2.2826     0.4008 C.2     
  11 C11           -0.2290    -3.0185     0.1953 C.2     
  12 N12           -2.4232    -3.1142     0.3581 N.2     
  13 N13           -1.9246    -4.4013     0.1188 N.pl3   
  14 C14           -0.5720    -4.3146     0.0228 C.2     
  15 C15           -2.6841    -5.5694     0.0039 C.ar    
  16 C16           -2.2726    -6.7524     0.6144 C.ar    
  17 C17           -3.8754    -5.5792    -0.7195 C.ar    
  18 C18           -4.5958    -6.7524    -0.8092 C.ar    
  19 N19           -4.1698    -7.8543    -0.2211 N.ar    
  20 C20           -3.0506    -7.8839     0.4769 C.ar    
  21 C21           -5.8857    -6.7757    -1.5881 C.3     
  22 H22           -2.7368    -8.8065     0.9425 H       
  23 C23            0.3758    -5.4584    -0.2310 C.3     
  24 C24            0.9845    -5.9200     1.0946 C.3     
  25 C25            1.8389    -7.1668     0.8567 C.3     
  26 O26            1.8016    -4.8781     1.6320 O.3     
  27 C27            2.3460    -7.7010     2.1977 C.3     
  28 H28           -3.7100    -1.7009    -0.5698 H       
  29 H29           -2.0399     1.2843     1.9968 H       
  30 H30           -4.2375     2.3810     2.1482 H       
  31 H31           -0.6762    -0.3795     0.7105 H       
  32 H32            0.7743    -2.6189     0.1779 H       
  33 H33           -1.3573    -6.7835     1.1868 H       
  34 H34           -4.2299    -4.6808    -1.2029 H       
  35 H35           -5.6785    -7.0346    -2.6264 H       
  36 H36           -6.5577    -7.5172    -1.1559 H       
  37 H37           -6.3538    -5.7923    -1.5452 H       
  38 H38           -0.1670    -6.2852    -0.6891 H       
  39 H39            1.1704    -5.1300    -0.9009 H       
  40 H40            0.1863    -6.1554     1.7985 H       
  41 H41            1.2371    -7.9312     0.3652 H       
  42 H42            2.6880    -6.9100     0.2234 H       
  43 H43            2.5341    -4.6167     1.0573 H       
  44 H44            1.4969    -7.9579     2.8311 H       
  45 H45            2.9547    -8.5892     2.0283 H       
  46 H46            2.9478    -6.9366     2.6892 H       
@<TRIPOS>BOND
   1    1    2 ar
   2    1    6 ar
   3    1   28 1
   4    2    3 ar
   5    2    9 1
   6    3    4 ar
   7    3   29 1
   8    4    5 ar
   9    4   30 1
  10    5    6 ar
  11    5    8 1
  12    6    7 1
  13    9   10 1
  14    9   31 1
  15   10   11 1
  16   10   12 2
  17   11   14 2
  18   11   32 1
  19   12   13 1
  20   13   14 1
  21   13   15 1
  22   14   23 1
  23   15   16 ar
  24   15   17 ar
  25   16   20 ar
  26   16   33 1
  27   17   18 ar
  28   17   34 1
  29   18   19 ar
  30   18   21 1
  31   19   20 ar
  32   20   22 1
  33   21   35 1
  34   21   36 1
  35   21   37 1
  36   23   24 1
  37   23   38 1
  38   23   39 1
  39   24   25 1
  40   24   26 1
  41   24   40 1
  42   25   27 1
  43   25   41 1
  44   25   42 1
  45   26   43 1
  46   27   44 1
  47   27   45 1
  48   27   46 1

#	End of record

