#	Name: ASD01911635
#	Creating user name:	WinNT
#	Creation time:	15. 06. 2019 19:58

#	Modifying user name:	WinNT
#	Modification time:	15. 06. 2019 19:58

#	Program:	/corina/corina34_cracker 3.40 0067  02.08.2006

@<TRIPOS>MOLECULE
ASD01911635
  37   39    0    0    0
SMALL
NO_CHARGES


@<TRIPOS>ATOM
   1 O1             0.0062     0.0485    -0.4119 O.2     
   2 C2            -0.0165     1.2477    -0.2045 C.2     
   3 C3             1.2315     2.0144    -0.2025 C.2     
   4 C4             2.4860     1.5104    -0.4185 C.2     
   5 S5             1.3813     3.7492     0.0707 S.3     
   6 C6             3.1273     3.6278    -0.1261 C.2     
   7 N7             3.4526     2.3826    -0.3702 N.2     
   8 C8             4.0478     4.7212    -0.0375 C.1     
   9 C9             4.8024     5.6176     0.0351 C.1     
  10 C10            5.7229     6.7110     0.1237 C.ar    
  11 C11            7.0928     6.4921    -0.0513 C.ar    
  12 C12            7.5035     8.8260     0.2945 C.ar    
  13 C13            6.1484     9.0515     0.4632 C.ar    
  14 C14            5.2558     8.0037     0.3798 C.ar    
  15 N15           -1.1907     1.8710     0.0179 N.am    
  16 C16            7.9729     7.5502     0.0350 C.ar    
  17 C17           -2.3902     1.1601    -0.0859 C.ar    
  18 C18           -2.4483    -0.1690     0.3133 C.ar    
  19 C19           -3.6347    -0.8683     0.2095 C.ar    
  20 C20           -4.7639    -0.2469    -0.2916 C.ar    
  21 C21           -4.7093     1.0762    -0.6903 C.ar    
  22 C22           -3.5278     1.7831    -0.5829 C.ar    
  23 C23           -6.0566    -1.0132    -0.4039 C.3     
  24 H24            2.6620     0.4631    -0.6149 H       
  25 H25            7.4607     5.4970    -0.2532 H       
  26 H26            8.1976     9.6507     0.3606 H       
  27 H27            5.7896    10.0499     0.6654 H       
  28 H28            4.1987     8.1812     0.5117 H       
  29 H29           -1.2035     2.8128     0.2498 H       
  30 H30            9.0313     7.3828    -0.0999 H       
  31 H31           -1.5667    -0.6552     0.7040 H       
  32 H32           -3.6806    -1.9018     0.5196 H       
  33 H33           -5.5929     1.5585    -1.0815 H       
  34 H34           -3.4858     2.8164    -0.8944 H       
  35 H35           -6.6265    -0.9016     0.5185 H       
  36 H36           -6.6382    -0.6242    -1.2396 H       
  37 H37           -5.8401    -2.0682    -0.5718 H       
@<TRIPOS>BOND
   1    1    2 2
   2    2    3 1
   3    2   15 am
   4    3    4 2
   5    3    5 1
   6    4    7 1
   7    4   24 1
   8    5    6 1
   9    6    7 2
  10    6    8 1
  11    8    9 3
  12    9   10 1
  13   10   11 ar
  14   10   14 ar
  15   11   16 ar
  16   11   25 1
  17   12   13 ar
  18   12   16 ar
  19   12   26 1
  20   13   14 ar
  21   13   27 1
  22   14   28 1
  23   15   17 1
  24   15   29 1
  25   16   30 1
  26   17   18 ar
  27   17   22 ar
  28   18   19 ar
  29   18   31 1
  30   19   20 ar
  31   19   32 1
  32   20   21 ar
  33   20   23 1
  34   21   22 ar
  35   21   33 1
  36   22   34 1
  37   23   35 1
  38   23   36 1
  39   23   37 1

#	End of record

