#	Name: ASD01901524
#	Creating user name:	WinNT
#	Creation time:	15. 06. 2019 19:53

#	Modifying user name:	WinNT
#	Modification time:	15. 06. 2019 19:53

#	Program:	/corina/corina34_cracker 3.40 0067  02.08.2006

@<TRIPOS>MOLECULE
ASD01901524
  45   47    0    0    0
SMALL
NO_CHARGES


@<TRIPOS>ATOM
   1 C1            -0.0187     1.5258     0.0104 C.3     
   2 C2             0.0021    -0.0041     0.0020 C.3     
   3 C3             0.7421    -0.5109     1.2415 C.3     
   4 N4            -1.3723    -0.5112     0.0124 N.am    
   5 C5            -2.0016    -1.3693    -1.0063 C.3     
   6 C6            -1.2664    -2.7069    -1.1120 C.3     
   7 C7            -3.4083    -1.5740    -0.4800 C.2     
   8 O8            -4.2956    -2.2210    -0.9940 O.2     
   9 N9            -3.4673    -0.8880     0.6786 N.am    
  10 C10           -2.3040    -0.2887     0.9570 C.2     
  11 O11           -2.1114     0.3840     1.9507 O.2     
  12 C12           -4.6062    -0.8151     1.4938 C.ar    
  13 C13           -5.5387     0.1979     1.2944 C.ar    
  14 F14           -5.3455     1.1097     0.3163 F       
  15 C15           -6.6608     0.2723     2.0940 C.ar    
  16 C16           -6.8598    -0.6715     3.1058 C.ar    
  17 C17           -5.9205    -1.6877     3.3036 C.ar    
  18 C18           -4.8036    -1.7593     2.4964 C.ar    
  19 F19           -3.8981    -2.7443     2.6832 F       
  20 C20           -8.0228    -0.5973     3.9379 C.1     
  21 C21           -8.9763    -0.5364     4.6201 C.1     
  22 C22          -10.1394    -0.4622     5.4522 C.ar    
  23 C23          -11.0822     0.5498     5.2525 C.ar    
  24 C24          -12.2001     0.6147     6.0576 C.ar    
  25 C25          -12.3894    -0.3192     7.0611 C.ar    
  26 C26          -11.4602    -1.3241     7.2648 C.ar    
  27 C27          -10.3400    -1.4048     6.4642 C.ar    
  28 H28            1.0039     1.9031     0.0027 H       
  29 H29           -0.5459     1.8868    -0.8726 H       
  30 H30           -0.5289     1.8773     0.9072 H       
  31 H31            0.5123    -0.3556    -0.8948 H       
  32 H32            1.7647    -0.1336     1.2338 H       
  33 H33            0.2319    -0.1594     2.1383 H       
  34 H34            0.7568    -1.6008     1.2356 H       
  35 H35           -2.0208    -0.8660    -1.9729 H       
  36 H36           -1.3011    -3.2176    -0.1497 H       
  37 H37           -1.7464    -3.3264    -1.8696 H       
  38 H38           -0.2281    -2.5296    -1.3921 H       
  39 H39           -7.3843     1.0590     1.9386 H       
  40 H40           -6.0709    -2.4184     4.0845 H       
  41 H41          -10.9355     1.2795     4.4699 H       
  42 H42          -12.9294     1.3964     5.9047 H       
  43 H43          -13.2666    -0.2632     7.6886 H       
  44 H44          -11.6145    -2.0495     8.0499 H       
  45 H45           -9.6177    -2.1921     6.6216 H       
@<TRIPOS>BOND
   1    1    2 1
   2    1   28 1
   3    1   29 1
   4    1   30 1
   5    2    3 1
   6    2    4 1
   7    2   31 1
   8    3   32 1
   9    3   33 1
  10    3   34 1
  11    4   10 am
  12    4    5 1
  13    5    6 1
  14    5    7 1
  15    5   35 1
  16    6   36 1
  17    6   37 1
  18    6   38 1
  19    7    8 2
  20    7    9 am
  21    9   10 am
  22    9   12 1
  23   10   11 2
  24   12   18 ar
  25   12   13 ar
  26   13   14 1
  27   13   15 ar
  28   15   16 ar
  29   15   39 1
  30   16   17 ar
  31   16   20 1
  32   17   18 ar
  33   17   40 1
  34   18   19 1
  35   20   21 3
  36   21   22 1
  37   22   27 ar
  38   22   23 ar
  39   23   24 ar
  40   23   41 1
  41   24   25 ar
  42   24   42 1
  43   25   26 ar
  44   25   43 1
  45   26   27 ar
  46   26   44 1
  47   27   45 1

#	End of record

