#	Name: ASD06170045
#	Creating user name:	WinNT
#	Creation time:	15. 06. 2019 21:05

#	Modifying user name:	WinNT
#	Modification time:	15. 06. 2019 21:05

#	Program:	/corina/corina34_cracker 3.40 0067  02.08.2006

@<TRIPOS>MOLECULE
ASD06170045
  63   67    0    0    0
SMALL
NO_CHARGES


@<TRIPOS>ATOM
   1 N1             0.0082    -2.5979     0.8154 N.pl3   
   2 N2            -0.2397    -1.4780     0.0161 N.am    
   3 C3             0.9404    -0.9031    -0.2958 C.2     
   4 C4             1.9844    -1.7153     0.3488 C.2     
   5 C5             1.3332    -2.7369     1.0120 C.2     
   6 C6             3.4333    -1.4854     0.2967 C.2     
   7 O7             4.1904    -2.2395     0.8789 O.2     
   8 N8             3.9250    -0.4390    -0.3960 N.am    
   9 C9            -1.4999    -1.0290    -0.3921 C.ar    
  10 C10           -1.7709     0.3322    -0.4431 C.ar    
  11 C11           -3.0161     0.7723    -0.8471 C.ar    
  12 C12           -3.9927    -0.1408    -1.2002 C.ar    
  13 C13           -3.7263    -1.4968    -1.1501 C.ar    
  14 C14           -2.4812    -1.9433    -0.7529 C.ar    
  15 O15            1.1083     0.0912    -0.9770 O.2     
  16 C16            1.9940    -3.8239     1.8199 C.3     
  17 C17           -1.0211    -3.4849     1.3631 C.3     
  18 C18            5.7709     1.1253    -0.4235 C.ar    
  19 C19            5.3016    -0.1798    -0.3899 C.ar    
  20 C20            6.2172    -1.2295    -0.3496 C.ar    
  21 C21            7.5671    -0.9261    -0.3446 C.ar    
  22 C22            7.9623     0.4047    -0.3797 C.ar    
  23 N23            7.0658     1.3763    -0.4180 N.ar    
  24 O24            9.2846     0.7121    -0.3751 O.3     
  25 N25           10.3495     4.6917    -0.1720 N.ar    
  26 C26           10.3381     4.0696    -1.3275 C.ar    
  27 C27            9.9853     2.7302    -1.4349 C.ar    
  28 C28            9.6339     2.0203    -0.3005 C.ar    
  29 C29            9.6497     2.7002     0.9380 C.ar    
  30 C30            9.3062     2.0470     2.1312 C.ar    
  31 C31            9.3330     2.7350     3.3098 C.ar    
  32 C32            9.7000     4.0881     3.3396 C.ar    
  33 C33           10.0387     4.7476     2.1934 C.ar    
  34 C34           10.0211     4.0666     0.9649 C.ar    
  35 O35            9.7182     4.7517     4.5253 O.3     
  36 C36           10.1003     6.1283     4.4924 C.3     
  37 O37            9.0002     2.1022     4.4663 O.3     
  38 C38            8.6350     0.7240     4.3698 C.3     
  39 H39            3.3257     0.1345    -0.8988 H       
  40 H40           -1.0088     1.0458    -0.1667 H       
  41 H41           -3.2274     1.8306    -0.8869 H       
  42 H42           -4.9658     0.2058    -1.5154 H       
  43 H43           -4.4914    -2.2074    -1.4259 H       
  44 H44           -2.2722    -3.0023    -0.7187 H       
  45 H45            2.2166    -4.6728     1.1735 H       
  46 H46            2.9197    -3.4437     2.2520 H       
  47 H47            1.3238    -4.1414     2.6187 H       
  48 H48           -1.2809    -4.2409     0.6221 H       
  49 H49           -0.6407    -3.9719     2.2610 H       
  50 H50           -1.9073    -2.9020     1.6136 H       
  51 H51            5.0683     1.9447    -0.4594 H       
  52 H52            5.8810    -2.2555    -0.3225 H       
  53 H53            8.3044    -1.7147    -0.3134 H       
  54 H54           10.6102     4.6141    -2.2196 H       
  55 H55            9.9849     2.2453    -2.3999 H       
  56 H56            9.0217     1.0053     2.1172 H       
  57 H57           10.3189     5.7899     2.2309 H       
  58 H58           10.0729     6.5372     5.5024 H       
  59 H59           11.1104     6.2156     4.0924 H       
  60 H60            9.4089     6.6822     3.8574 H       
  61 H61            8.3937     0.3418     5.3617 H       
  62 H62            7.7657     0.6231     3.7201 H       
  63 H63            9.4672     0.1559     3.9541 H       
@<TRIPOS>BOND
   1    1    2 1
   2    1    5 1
   3    1   17 1
   4    2    3 am
   5    2    9 1
   6    3    4 1
   7    3   15 2
   8    4    5 2
   9    4    6 1
  10    5   16 1
  11    6    7 2
  12    6    8 am
  13    8   19 1
  14    8   39 1
  15    9   10 ar
  16    9   14 ar
  17   10   11 ar
  18   10   40 1
  19   11   12 ar
  20   11   41 1
  21   12   13 ar
  22   12   42 1
  23   13   14 ar
  24   13   43 1
  25   14   44 1
  26   16   45 1
  27   16   46 1
  28   16   47 1
  29   17   48 1
  30   17   49 1
  31   17   50 1
  32   18   19 ar
  33   18   23 ar
  34   18   51 1
  35   19   20 ar
  36   20   21 ar
  37   20   52 1
  38   21   22 ar
  39   21   53 1
  40   22   23 ar
  41   22   24 1
  42   24   28 1
  43   25   26 ar
  44   25   34 ar
  45   26   27 ar
  46   26   54 1
  47   27   28 ar
  48   27   55 1
  49   28   29 ar
  50   29   30 ar
  51   29   34 ar
  52   30   31 ar
  53   30   56 1
  54   31   32 ar
  55   31   37 1
  56   32   33 ar
  57   32   35 1
  58   33   34 ar
  59   33   57 1
  60   35   36 1
  61   36   58 1
  62   36   59 1
  63   36   60 1
  64   37   38 1
  65   38   61 1
  66   38   62 1
  67   38   63 1

#	End of record

