#	Name: ASD00170650
#	Creating user name:	WinNT
#	Creation time:	15. 06. 2019 18:32

#	Modifying user name:	WinNT
#	Modification time:	15. 06. 2019 18:32

#	Program:	/corina/corina34_cracker 3.40 0067  02.08.2006

@<TRIPOS>MOLECULE
ASD00170650
  43   46    0    0    0
SMALL
NO_CHARGES


@<TRIPOS>ATOM
   1 C1            -0.0150     1.2136    -0.0084 C.2     
   2 O2             0.6032     1.0082    -1.0388 O.2     
   3 C3             0.5220     0.7467     1.2750 C.2     
   4 C4             1.6473    -0.0118     1.4345 C.2     
   5 C5             1.9222    -0.3070     2.7492 C.2     
   6 C6             1.0536     0.1915     3.6364 C.2     
   7 S7            -0.1752     1.0801     2.8544 S.3     
   8 C8            -3.5971     2.1343    -0.2047 C.2     
   9 C9            -2.5766     1.2701    -0.1912 C.2     
  10 C10           -1.2918     1.9324    -0.0506 C.2     
  11 C11           -1.3920     3.2952     0.0386 C.2     
  12 S12           -3.0202     3.7852    -0.0455 S.3     
  13 C13           -2.7497    -0.2357    -0.3102 C.3     
  14 C14           -4.1464    -0.5288    -0.8628 C.3     
  15 C15           -5.1843     0.2391    -0.0388 C.3     
  16 C16           -5.0536     1.7349    -0.3454 C.3     
  17 C17           -6.5892    -0.2378    -0.4126 C.3     
  18 C18           -7.6009     0.4286     0.4837 C.ar    
  19 C19           -8.1632     1.6359     0.1135 C.ar    
  20 C20           -9.0912     2.2472     0.9356 C.ar    
  21 C21           -9.4573     1.6510     2.1278 C.ar    
  22 C22           -8.8958     0.4432     2.4976 C.ar    
  23 C23           -7.9709    -0.1703     1.6734 C.ar    
  24 N24           -0.3190     4.1545     0.1776 N.pl3   
  25 H25            2.2595    -0.3467     0.6101 H       
  26 H26            2.7766    -0.8983     3.0440 H       
  27 H27            1.1231     0.0531     4.7052 H       
  28 H28           -1.9968    -0.6376    -0.9882 H       
  29 H29           -2.6418    -0.6947     0.6725 H       
  30 H30           -4.2003    -0.2109    -1.9040 H       
  31 H31           -4.3473    -1.5981    -0.7965 H       
  32 H32           -5.0089     0.0644     1.0227 H       
  33 H33           -5.6581     2.3019     0.3626 H       
  34 H34           -5.3915     1.9373    -1.3618 H       
  35 H35           -6.7967     0.0217    -1.4507 H       
  36 H36           -6.6507    -1.3190    -0.2890 H       
  37 H37           -7.8772     2.1018    -0.8180 H       
  38 H38           -9.5300     3.1908     0.6467 H       
  39 H39          -10.1819     2.1289     2.7705 H       
  40 H40           -9.1815    -0.0225     3.4292 H       
  41 H41           -7.5349    -1.1157     1.9606 H       
  42 H42            0.5753     3.7983     0.2969 H       
  43 H43           -0.4601     5.1139     0.1560 H       
@<TRIPOS>BOND
   1    1    2 2
   2    1    3 1
   3    1   10 1
   4    3    4 2
   5    3    7 1
   6    4    5 1
   7    4   25 1
   8    5    6 2
   9    5   26 1
  10    6    7 1
  11    6   27 1
  12    8    9 2
  13    8   12 1
  14    8   16 1
  15    9   10 1
  16    9   13 1
  17   10   11 2
  18   11   12 1
  19   11   24 1
  20   13   14 1
  21   13   28 1
  22   13   29 1
  23   14   15 1
  24   14   30 1
  25   14   31 1
  26   15   16 1
  27   15   17 1
  28   15   32 1
  29   16   33 1
  30   16   34 1
  31   17   18 1
  32   17   35 1
  33   17   36 1
  34   18   19 ar
  35   18   23 ar
  36   19   20 ar
  37   19   37 1
  38   20   21 ar
  39   20   38 1
  40   21   22 ar
  41   21   39 1
  42   22   23 ar
  43   22   40 1
  44   23   41 1
  45   24   42 1
  46   24   43 1

#	End of record

