#	Name: ASD01884024
#	Creating user name:	WinNT
#	Creation time:	15. 06. 2019 19:47

#	Modifying user name:	WinNT
#	Modification time:	15. 06. 2019 19:47

#	Program:	/corina/corina34_cracker 3.40 0067  02.08.2006

@<TRIPOS>MOLECULE
ASD01884024
  59   62    0    0    0
SMALL
NO_CHARGES


@<TRIPOS>ATOM
   1 C1            -0.0013     1.3480     0.2140 C.2     
   2 C2            -0.0306    -0.0530     0.1093 C.2     
   3 C3            -1.2301    -0.6820    -0.0865 C.2     
   4 C4            -2.4121     0.0847    -0.1794 C.2     
   5 C5            -2.3608     1.4271    -0.0762 C.2     
   6 N6            -1.1708     2.0634     0.1251 N.pl3   
   7 C7            -0.8166     3.3735     0.2628 C.2     
   8 N8             0.4800     3.4152     0.4220 N.2     
   9 N9             0.9720     2.2266     0.3999 N.2     
  10 N10           -1.2844    -2.0684    -0.1938 N.pl3   
  11 C11           -1.7497     4.5565     0.2357 C.3     
  12 C12            1.2427    -0.8525     0.2108 C.3     
  13 C13           -2.2381     4.8534     1.6550 C.3     
  14 C14           -0.6609    -2.7561    -1.3327 C.3     
  15 C15           -1.7056    -3.6597    -1.9951 C.3     
  16 C16           -2.3023    -4.5985    -0.9440 C.3     
  17 C17           -2.9960    -3.7747     0.1432 C.3     
  18 C18           -1.9611    -2.8728     0.8328 C.3     
  19 C19           -3.1854     6.0545     1.6276 C.3     
  20 F20            1.7545    -1.0791    -1.0714 F       
  21 F21            2.1802    -0.1422     0.9683 F       
  22 F22            0.9755    -2.0784     0.8296 F       
  23 C23           -3.8764     6.4393     2.9373 C.3     
  24 C24           -2.7514     7.3139     2.3802 C.3     
  25 O25           -3.2541    -5.4649    -1.5650 O.3     
  26 C26           -3.4131    -6.6970    -1.0197 C.ar    
  27 C27           -4.3238    -7.5845    -1.5789 C.ar    
  28 C28           -4.4761    -8.8383    -1.0135 C.ar    
  29 C29           -3.7081    -9.1616     0.0970 C.ar    
  30 C30           -2.8224    -8.2299     0.6000 C.ar    
  31 N31           -2.6956    -7.0436     0.0358 N.ar    
  32 H32           -3.3612    -0.4069    -0.3343 H       
  33 H33           -3.2707     2.0044    -0.1490 H       
  34 H34           -1.2225     5.4262    -0.1565 H       
  35 H35           -2.6039     4.3310    -0.4027 H       
  36 H36           -2.7653     3.9837     2.0472 H       
  37 H37           -1.3839     5.0789     2.2934 H       
  38 H38           -0.3046    -2.0202    -2.0534 H       
  39 H39            0.1751    -3.3609    -0.9812 H       
  40 H40           -2.4968    -3.0460    -2.4258 H       
  41 H41           -1.2320    -4.2478    -2.7812 H       
  42 H42           -1.5071    -5.1945    -0.4962 H       
  43 H43           -3.7750    -3.1599    -0.3076 H       
  44 H44           -3.4408    -4.4445     0.8791 H       
  45 H45           -1.2289    -3.4868     1.3572 H       
  46 H46           -2.4629    -2.2138     1.5413 H       
  47 H47           -3.7478     6.1887     0.7035 H       
  48 H48           -4.8932     6.8270     2.8749 H       
  49 H49           -3.6560     5.8368     3.8185 H       
  50 H50           -1.7909     7.2868     2.8948 H       
  51 H51           -3.0281     8.2770     1.9512 H       
  52 H52           -4.9055    -7.2997    -2.4431 H       
  53 H53           -5.1767    -9.5490    -1.4264 H       
  54 H54           -3.8029   -10.1315     0.5625 H       
  55 H55           -2.2226    -8.4764     1.4636 H       
  56 N56            7.7186    14.2859     9.5928 N.3     
  57 H57            7.7323    13.2770     9.5873 H       
  58 H58            8.6556    14.6603     9.5859 H       
  59 H59            7.1802    14.6445     8.8185 H       
@<TRIPOS>BOND
   1    1    2 1
   2    1    9 2
   3    1    6 1
   4    2    3 2
   5    2   12 1
   6    3    4 1
   7    3   10 1
   8    4    5 2
   9    4   32 1
  10    5    6 1
  11    5   33 1
  12    6    7 1
  13    7    8 2
  14    7   11 1
  15    8    9 1
  16   10   14 1
  17   10   18 1
  18   11   13 1
  19   11   34 1
  20   11   35 1
  21   12   20 1
  22   12   21 1
  23   12   22 1
  24   13   19 1
  25   13   36 1
  26   13   37 1
  27   14   15 1
  28   14   38 1
  29   14   39 1
  30   15   16 1
  31   15   40 1
  32   15   41 1
  33   16   17 1
  34   16   25 1
  35   16   42 1
  36   17   18 1
  37   17   43 1
  38   17   44 1
  39   18   45 1
  40   18   46 1
  41   19   23 1
  42   19   24 1
  43   19   47 1
  44   23   24 1
  45   23   48 1
  46   23   49 1
  47   24   50 1
  48   24   51 1
  49   25   26 1
  50   26   27 ar
  51   26   31 ar
  52   27   28 ar
  53   27   52 1
  54   28   29 ar
  55   28   53 1
  56   29   30 ar
  57   29   54 1
  58   30   31 ar
  59   30   55 1
  60   56   57 1
  61   56   58 1
  62   56   59 1

#	End of record

