#	Name: ASD04881319
#	Creating user name:	WinNT
#	Creation time:	15. 06. 2019 20:53

#	Modifying user name:	WinNT
#	Modification time:	15. 06. 2019 20:53

#	Program:	/corina/corina34_cracker 3.40 0067  02.08.2006

@<TRIPOS>MOLECULE
ASD04881319
  78   82    0    0    0
SMALL
NO_CHARGES


@<TRIPOS>ATOM
   1 N1             6.9606    -0.5803     3.3269 N.3     
   2 C2             7.6545     0.3958     2.4752 C.3     
   3 C3             7.5247    -0.0264     1.0098 C.3     
   4 N4             6.1020    -0.1154     0.6525 N.3     
   5 C5             5.4081    -1.0915     1.5042 C.3     
   6 C6             5.5379    -0.6693     2.9695 C.3     
   7 C7             5.9446    -0.4281    -0.6952 C.ar    
   8 C8             5.4041    -1.6544    -1.0648 C.ar    
   9 C9             5.2462    -1.9676    -2.3966 C.ar    
  10 C10            5.6293    -1.0525    -3.3811 C.ar    
  11 C11            6.1730     0.1812    -3.0122 C.ar    
  12 C12            6.3248     0.4938    -1.6745 C.ar    
  13 N13            6.8641     1.7318    -1.3005 N.am    
  14 C14            7.7710     2.3384    -2.0916 C.2     
  15 C15            8.4092     3.5929    -1.6536 C.2     
  16 O16            8.0630     1.8508    -3.1669 O.2     
  17 N17            8.1822     4.2498    -0.4838 N.2     
  18 C18            8.9292     5.3126    -0.4567 C.2     
  19 O19            9.6489     5.3758    -1.5858 O.3     
  20 C20            9.3406     4.3090    -2.3406 C.2     
  21 C21            5.4605    -1.3884    -4.8077 C.2     
  22 O22            4.9479    -0.5865    -5.5646 O.2     
  23 N23            5.8745    -2.5840    -5.2720 N.am    
  24 C24            8.9786     6.3159     0.6668 C.3     
  25 C25           10.3234     6.5294     1.3645 C.3     
  26 C26            9.7679     7.6048     0.4287 C.3     
  27 C27            7.1185    -0.2667     4.6787 C.ar    
  28 C28            6.0252     0.1465     5.4299 C.ar    
  29 C29            6.1847     0.4554     6.7662 C.ar    
  30 C30            7.4312     0.3541     7.3570 C.ar    
  31 C31            8.5213    -0.0568     6.6124 C.ar    
  32 C32            8.3676    -0.3728     5.2766 C.ar    
  33 C33            9.5552    -0.8265     4.4673 C.3     
  34 C34            5.6488    -2.9433    -6.6742 C.3     
  35 C35            6.3532    -1.9310    -7.5798 C.3     
  36 C36            6.5502    -3.5243    -4.3745 C.3     
  37 C37            5.5513    -4.5799    -3.8960 C.3     
  38 C38            6.2101    -4.3417    -6.9391 C.3     
  39 C39            4.1473    -2.9323    -6.9682 C.3     
  40 H40            7.2065     1.3802     2.6111 H       
  41 H41            8.7084     0.4344     2.7506 H       
  42 H42            8.0139     0.7116     0.3741 H       
  43 H43            7.9967    -0.9987     0.8684 H       
  44 H44            4.3542    -1.1301     1.2288 H       
  45 H45            5.8560    -2.0759     1.3683 H       
  46 H46            5.0487    -1.4073     3.6053 H       
  47 H47            5.0659     0.3030     3.1110 H       
  48 H48            5.1077    -2.3633    -0.3058 H       
  49 H49            4.8263    -2.9213    -2.6805 H       
  50 H50            6.4702     0.8902    -3.7707 H       
  51 H51            6.5846     2.1522    -0.4722 H       
  52 H52            9.7522     4.0663    -3.3091 H       
  53 H53            8.0784     6.3821     1.2778 H       
  54 H54           10.3079     6.7365     2.4346 H       
  55 H55           11.1723     5.9442     1.0110 H       
  56 H56           10.2514     7.7271    -0.5405 H       
  57 H57            9.3869     8.5194     0.8830 H       
  58 H58            5.0518     0.2265     4.9690 H       
  59 H59            5.3353     0.7767     7.3507 H       
  60 H60            7.5533     0.5970     8.4022 H       
  61 H61            9.4932    -0.1348     7.0768 H       
  62 H62           10.0936     0.0440     4.0927 H       
  63 H63           10.2179    -1.4207     5.0964 H       
  64 H64            9.2128    -1.4311     3.6274 H       
  65 H65            7.4229    -1.9389    -7.3704 H       
  66 H66            6.1853    -2.1984    -8.6231 H       
  67 H67            5.9533    -0.9348    -7.3911 H       
  68 H68            7.3668    -4.0118    -4.9070 H       
  69 H69            6.9478    -2.9844    -3.5152 H       
  70 H70            4.5773    -4.1152    -3.7425 H       
  71 H71            5.4649    -5.3652    -4.6469 H       
  72 H72            5.9000    -5.0112    -2.9577 H       
  73 H73            5.7083    -5.0629    -6.2939 H       
  74 H74            6.0422    -4.6090    -7.9824 H       
  75 H75            7.2798    -4.3495    -6.7296 H       
  76 H76            3.7474    -1.9360    -6.7795 H       
  77 H77            3.9794    -3.1996    -8.0115 H       
  78 H78            3.6455    -3.6534    -6.3230 H       
@<TRIPOS>BOND
   1    1    2 1
   2    1    6 1
   3    1   27 1
   4    2    3 1
   5    2   40 1
   6    2   41 1
   7    3    4 1
   8    3   42 1
   9    3   43 1
  10    4    5 1
  11    4    7 1
  12    5    6 1
  13    5   44 1
  14    5   45 1
  15    6   46 1
  16    6   47 1
  17    7    8 ar
  18    7   12 ar
  19    8    9 ar
  20    8   48 1
  21    9   10 ar
  22    9   49 1
  23   10   11 ar
  24   10   21 1
  25   11   12 ar
  26   11   50 1
  27   12   13 1
  28   13   14 am
  29   13   51 1
  30   14   15 1
  31   14   16 2
  32   15   17 1
  33   15   20 2
  34   17   18 2
  35   18   19 1
  36   18   24 1
  37   19   20 1
  38   20   52 1
  39   21   22 2
  40   21   23 am
  41   23   34 1
  42   23   36 1
  43   24   25 1
  44   24   26 1
  45   24   53 1
  46   25   26 1
  47   25   54 1
  48   25   55 1
  49   26   56 1
  50   26   57 1
  51   27   28 ar
  52   27   32 ar
  53   28   29 ar
  54   28   58 1
  55   29   30 ar
  56   29   59 1
  57   30   31 ar
  58   30   60 1
  59   31   32 ar
  60   31   61 1
  61   32   33 1
  62   33   62 1
  63   33   63 1
  64   33   64 1
  65   34   35 1
  66   34   38 1
  67   34   39 1
  68   35   65 1
  69   35   66 1
  70   35   67 1
  71   36   37 1
  72   36   68 1
  73   36   69 1
  74   37   70 1
  75   37   71 1
  76   37   72 1
  77   38   73 1
  78   38   74 1
  79   38   75 1
  80   39   76 1
  81   39   77 1
  82   39   78 1

#	End of record

