#	Name: ASD03430670
#	Creating user name:	WinNT
#	Creation time:	15. 06. 2019 20:41

#	Modifying user name:	WinNT
#	Modification time:	15. 06. 2019 20:41

#	Program:	/corina/corina34_cracker 3.40 0067  02.08.2006

@<TRIPOS>MOLECULE
ASD03430670
  48   53    0    0    0
SMALL
NO_CHARGES


@<TRIPOS>ATOM
   1 C1            -0.2378     1.1960     0.7037 C.ar    
   2 C2            -0.1463    -0.1711     0.5033 C.ar    
   3 C3             1.0745    -0.7518     0.2292 C.ar    
   4 C4             2.2287     0.0227     0.1615 C.ar    
   5 C5             2.1329     1.3970     0.3581 C.ar    
   6 C6             0.9091     1.9829     0.6273 C.ar    
   7 O7             3.3261    -0.7472    -0.0896 O.3     
   8 C8             1.4918    -2.1696    -0.0558 C.3     
   9 C9             2.9043    -2.0116    -0.6357 C.3     
  10 C10            0.6253    -4.0859     0.8919 C.ar    
  11 C11            1.4849    -3.0269     1.1748 C.ar    
  12 C12            0.5662    -2.8521    -1.0216 C.2     
  13 N13            0.1055    -3.9547    -0.3981 N.am    
  14 O14            0.2880    -2.4835    -2.1432 O.2     
  15 C15            2.1171    -2.9450     2.3950 C.ar    
  16 C16            1.9019    -3.9192     3.3541 C.ar    
  17 C17            1.0510    -4.9749     3.0839 C.ar    
  18 C18            0.4151    -5.0617     1.8626 C.ar    
  19 C19           -0.8313    -4.9049    -1.0028 C.3     
  20 C20           -2.2404    -4.3985    -0.8326 C.2     
  21 C21           -3.1177    -4.7382     0.2023 C.2     
  22 N22           -4.2439    -4.1007     0.0097 N.2     
  23 N23           -4.1196    -3.3336    -1.1558 N.pl3   
  24 C24           -2.8795    -3.5293    -1.6517 C.2     
  25 C25           -5.1515    -2.4678    -1.7318 C.3     
  26 O26           -1.3046     2.0032     0.9781 O.3     
  27 C27           -0.7397     3.2313     1.4738 C.3     
  28 O28            0.5599     3.2836     0.8532 O.3     
  29 Cl29          -2.2249    -2.8051    -3.0872 Cl      
  30 C30           -2.8178    -5.6771     1.3423 C.3     
  31 F31           -2.1985    -4.9698     2.3784 F       
  32 F32           -4.0106    -6.2394     1.8095 F       
  33 F33           -1.9659    -6.6937     0.8974 F       
  34 H34           -1.0332    -0.7846     0.5623 H       
  35 H35            3.0201     2.0102     0.3005 H       
  36 H36            2.8735    -1.9721    -1.7245 H       
  37 H37            3.5550    -2.8169    -0.2947 H       
  38 H38            2.7813    -2.1195     2.6041 H       
  39 H39            2.3979    -3.8552     4.3113 H       
  40 H40            0.8835    -5.7353     3.8323 H       
  41 H41           -0.2483    -5.8893     1.6589 H       
  42 H42           -0.6084    -5.0091    -2.0647 H       
  43 H43           -0.7319    -5.8741    -0.5140 H       
  44 H44           -5.0558    -1.4638    -1.3182 H       
  45 H45           -5.0297    -2.4279    -2.8142 H       
  46 H46           -6.1367    -2.8673    -1.4915 H       
  47 H47           -1.3444     4.0836     1.1638 H       
  48 H48           -0.6482     3.2000     2.5595 H       
@<TRIPOS>BOND
   1    1    2 ar
   2    1    6 ar
   3    1   26 1
   4    2    3 ar
   5    2   34 1
   6    3    4 ar
   7    3    8 1
   8    4    5 ar
   9    4    7 1
  10    5    6 ar
  11    5   35 1
  12    6   28 1
  13    7    9 1
  14    8    9 1
  15    8   11 1
  16    8   12 1
  17    9   36 1
  18    9   37 1
  19   10   11 ar
  20   10   13 1
  21   10   18 ar
  22   11   15 ar
  23   12   13 am
  24   12   14 2
  25   13   19 1
  26   15   16 ar
  27   15   38 1
  28   16   17 ar
  29   16   39 1
  30   17   18 ar
  31   17   40 1
  32   18   41 1
  33   19   20 1
  34   19   42 1
  35   19   43 1
  36   20   21 1
  37   20   24 2
  38   21   22 2
  39   21   30 1
  40   22   23 1
  41   23   24 1
  42   23   25 1
  43   24   29 1
  44   25   44 1
  45   25   45 1
  46   25   46 1
  47   26   27 1
  48   27   28 1
  49   27   47 1
  50   27   48 1
  51   30   31 1
  52   30   32 1
  53   30   33 1

#	End of record

