#	Name: ASD02590036
#	Creating user name:	WinNT
#	Creation time:	15. 06. 2019 20:25

#	Modifying user name:	WinNT
#	Modification time:	15. 06. 2019 20:25

#	Program:	/corina/corina34_cracker 3.40 0067  02.08.2006

@<TRIPOS>MOLECULE
ASD02590036
  40   43    0    0    0
SMALL
NO_CHARGES


@<TRIPOS>ATOM
   1 C1            -0.0168     1.3895     0.0097 C.ar    
   2 C2            -0.0074     0.0146     0.2376 C.ar    
   3 C3            -1.1865    -0.6988     0.2479 C.ar    
   4 C4            -2.3924    -0.0474     0.0302 C.ar    
   5 C5            -2.4117     1.3399    -0.2007 C.ar    
   6 C6            -1.2094     2.0546    -0.2032 C.ar    
   7 N7            -3.7100    -0.4644    -0.0207 N.pl3   
   8 C8            -4.4748     0.6422    -0.2730 C.2     
   9 N9            -3.7062     1.6985    -0.3776 N.2     
  10 C10           -5.9476     0.6454    -0.4075 C.ar    
  11 C11           -6.6147     1.8427    -0.6659 C.ar    
  12 C12           -7.9922     1.8327    -0.7895 C.ar    
  13 C13           -8.6623     0.6203    -0.6502 C.ar    
  14 C14           -7.9318    -0.5342    -0.3931 C.ar    
  15 N15           -6.6213    -0.4927    -0.2863 N.ar    
  16 N16            1.1876     2.1015     0.0020 N.3     
  17 C17            2.2716     1.2996    -0.5944 C.3     
  18 C18            2.8493     2.1146    -1.7706 C.3     
  19 C19            2.4428     3.5702    -1.4201 C.3     
  20 C20            1.0552     3.3584    -0.7650 C.3     
  21 O21          -10.0147     0.5661    -0.7637 O.3     
  22 C22          -10.6280    -0.7151    -0.6079 C.3     
  23 H23            0.9296    -0.4950     0.4070 H       
  24 H24           -1.1720    -1.7641     0.4248 H       
  25 H25           -1.2122     3.1202    -0.3790 H       
  26 H26           -4.0318    -1.3715     0.0994 H       
  27 H27           -6.0629     2.7655    -0.7678 H       
  28 H28           -8.5356     2.7444    -0.9891 H       
  29 H29           -8.4462    -1.4775    -0.2840 H       
  30 H30            3.0491     1.1170     0.1474 H       
  31 H31            1.8745     0.3523    -0.9593 H       
  32 H32            3.9341     2.0166    -1.8114 H       
  33 H33            2.3975     1.8046    -2.7129 H       
  34 H34            3.1450     4.0122    -0.7132 H       
  35 H35            2.3609     4.1801    -2.3198 H       
  36 H36            0.2857     3.2567    -1.5303 H       
  37 H37            0.8202     4.1874    -0.0974 H       
  38 H38          -11.7076    -0.6174    -0.7218 H       
  39 H39          -10.2429    -1.3969    -1.3661 H       
  40 H40          -10.4014    -1.1083     0.3831 H       
@<TRIPOS>BOND
   1    1    2 ar
   2    1   16 1
   3    1    6 ar
   4    2    3 ar
   5    2   23 1
   6    3    4 ar
   7    3   24 1
   8    4    5 ar
   9    4    7 1
  10    5    6 ar
  11    5    9 1
  12    6   25 1
  13    7    8 1
  14    7   26 1
  15    8    9 2
  16    8   10 1
  17   10   11 ar
  18   10   15 ar
  19   11   12 ar
  20   11   27 1
  21   12   13 ar
  22   12   28 1
  23   13   14 ar
  24   13   21 1
  25   14   15 ar
  26   14   29 1
  27   16   17 1
  28   16   20 1
  29   17   18 1
  30   17   30 1
  31   17   31 1
  32   18   19 1
  33   18   32 1
  34   18   33 1
  35   19   20 1
  36   19   34 1
  37   19   35 1
  38   20   36 1
  39   20   37 1
  40   21   22 1
  41   22   38 1
  42   22   39 1
  43   22   40 1

#	End of record

