#	Name: ASD03090916
#	Creating user name:	WinNT
#	Creation time:	15. 06. 2019 20:29

#	Modifying user name:	WinNT
#	Modification time:	15. 06. 2019 20:29

#	Program:	/corina/corina34_cracker 3.40 0067  02.08.2006

@<TRIPOS>MOLECULE
ASD03090916
  50   53    0    0    0
SMALL
NO_CHARGES


@<TRIPOS>ATOM
   1 N1            -0.0188     1.4673    -0.0834 N.am    
   2 C2             0.0008    -0.0024    -0.1161 C.3     
   3 C3             1.4805    -0.4407    -0.1289 C.3     
   4 C4             2.2127     0.7901     0.4681 C.3     
   5 C5             1.3708     1.9592    -0.1013 C.3     
   6 C6            -1.1243     2.2375    -0.0488 C.2     
   7 O7            -2.2278     1.7198    -0.0425 O.2     
   8 N8            -1.0107     3.5684    -0.0213 N.2     
   9 S9            -3.7398     3.7959     0.0279 S.3     
  10 C10           -2.1024     4.3290     0.0129 C.2     
  11 N11           -2.1550     5.6846     0.0435 N.pl3   
  12 C12           -3.3921     6.2525     0.0762 C.2     
  13 C13           -4.4303     5.4271     0.0751 C.2     
  14 O14            2.4602     8.7439     0.0479 O.3     
  15 C15            2.3558    10.0917    -0.4236 C.3     
  16 C16            1.1211    10.7329     0.2242 C.3     
  17 O17           -0.0301     9.9703    -0.1539 O.3     
  18 C18            0.0733     8.6166    -0.0559 C.ar    
  19 C19            1.3172     8.0034     0.0429 C.ar    
  20 C20           -1.0787     7.8459    -0.0547 C.ar    
  21 C21           -0.9896     6.4641     0.0421 C.ar    
  22 C22            0.2537     5.8546     0.1379 C.ar    
  23 C23            1.4023     6.6224     0.1382 C.ar    
  24 F24            1.2587    10.7207     1.6164 F       
  25 F25            0.9829    12.0504    -0.2255 F       
  26 F26            3.5027    10.8075    -0.0640 F       
  27 F27            2.2138    10.0950    -1.8154 F       
  28 C28           -5.8905     5.7985     0.1075 C.3     
  29 O29           -6.5130     5.3904    -1.1123 O.3     
  30 C30           -7.9068     5.6975    -1.1846 C.3     
  31 C31           -8.4657     5.2181    -2.5257 C.3     
  32 H32           -0.4957    -0.3996     0.7693 H       
  33 H33           -0.4995    -0.3600    -1.0160 H       
  34 H34            1.6280    -1.3193     0.4991 H       
  35 H35            1.8170    -0.6328    -1.1478 H       
  36 H36            2.1756     0.7763     1.5574 H       
  37 H37            3.2424     0.8416     0.1144 H       
  38 H38            1.6794     2.1872    -1.1215 H       
  39 H39            1.4692     2.8410     0.5317 H       
  40 H40           -3.5218     7.3244     0.1019 H       
  41 H41           -2.0458     8.3206    -0.1300 H       
  42 H42            0.3233     4.7794     0.2122 H       
  43 H43            2.3687     6.1461     0.2126 H       
  44 H44           -6.3739     5.2989     0.9471 H       
  45 H45           -5.9883     6.8781     0.2219 H       
  46 H46           -8.4320     5.1958    -0.3719 H       
  47 H47           -8.0464     6.7750    -1.0970 H       
  48 H48           -7.9405     5.7198    -3.3385 H       
  49 H49           -8.3260     4.1407    -2.6133 H       
  50 H50           -9.5288     5.4524    -2.5809 H       
@<TRIPOS>BOND
   1    1    2 1
   2    1    5 1
   3    1    6 am
   4    2    3 1
   5    2   32 1
   6    2   33 1
   7    3    4 1
   8    3   34 1
   9    3   35 1
  10    4    5 1
  11    4   36 1
  12    4   37 1
  13    5   38 1
  14    5   39 1
  15    6    7 2
  16    6    8 1
  17    8   10 2
  18    9   10 1
  19    9   13 1
  20   10   11 1
  21   11   12 1
  22   11   21 1
  23   12   13 2
  24   12   40 1
  25   13   28 1
  26   14   15 1
  27   14   19 1
  28   15   16 1
  29   15   26 1
  30   15   27 1
  31   16   17 1
  32   16   24 1
  33   16   25 1
  34   17   18 1
  35   18   19 ar
  36   18   20 ar
  37   19   23 ar
  38   20   21 ar
  39   20   41 1
  40   21   22 ar
  41   22   23 ar
  42   22   42 1
  43   23   43 1
  44   28   29 1
  45   28   44 1
  46   28   45 1
  47   29   30 1
  48   30   31 1
  49   30   46 1
  50   30   47 1
  51   31   48 1
  52   31   49 1
  53   31   50 1

#	End of record

