#	Name: ASD05130095
#	Creating user name:	WinNT
#	Creation time:	15. 06. 2019 20:56

#	Modifying user name:	WinNT
#	Modification time:	15. 06. 2019 20:56

#	Program:	/corina/corina34_cracker 3.40 0067  02.08.2006

@<TRIPOS>MOLECULE
ASD05130095
  54   57    0    0    0
SMALL
NO_CHARGES


@<TRIPOS>ATOM
   1 N1            -0.1619     1.5510     0.1051 N.am    
   2 C2             0.0490     0.4227     0.8114 C.2     
   3 O3             1.1154     0.2439     1.3676 O.2     
   4 N4            -0.9223    -0.5074     0.9014 N.am    
   5 C5            -0.6685    -1.7241     1.5443 C.ar    
   6 C6            -1.6807    -2.3628     2.2488 C.ar    
   7 C7            -1.4281    -3.5645     2.8833 C.ar    
   8 C8            -0.1675    -4.1317     2.8177 C.ar    
   9 C9             0.8439    -3.4971     2.1165 C.ar    
  10 C10            0.5939    -2.2973     1.4742 C.ar    
  11 F11            2.0738    -4.0527     2.0544 F       
  12 Cl12          -2.6933    -4.3629     3.7639 Cl      
  13 C13            0.8131     2.5572     0.0845 C.ar    
  14 C14            0.4378     3.8864    -0.0869 C.ar    
  15 C15            1.3976     4.8828    -0.1078 C.ar    
  16 C16            2.7335     4.5632     0.0416 C.ar    
  17 C17            3.1175     3.2328     0.2139 C.ar    
  18 C18            2.1499     2.2295     0.2405 C.ar    
  19 F19           -0.8669     4.2045    -0.2339 F       
  20 N20            6.5383     2.8460     1.7860 N.am    
  21 C21            5.2361     3.1597     1.6392 C.2     
  22 C22            4.5495     2.8879     0.3742 C.2     
  23 C23            5.2391     2.3131    -0.6583 C.2     
  24 C24            6.6059     1.9929    -0.4795 C.ar    
  25 C25            7.3502     1.4041    -1.5093 C.ar    
  26 N26            8.6196     1.1128    -1.3267 N.ar    
  27 C27            9.2446     1.3584    -0.1801 C.ar    
  28 C28            8.5823     1.9400     0.8916 C.ar    
  29 C29            7.2387     2.2677     0.7526 C.ar    
  30 O30            4.6274     3.6710     2.5622 O.2     
  31 N31           10.5855     1.0264    -0.0518 N.pl3   
  32 C32           11.2885     1.2909     1.2060 C.3     
  33 C33            7.2152     3.1284     3.0542 C.3     
  34 C34            7.0812     1.9207     3.9838 C.3     
  35 Cl35           3.9342     5.8167     0.0142 Cl      
  36 H36           -0.9868     1.6648    -0.3923 H       
  37 H37           -1.7972    -0.3335     0.5204 H       
  38 H38           -2.6646    -1.9206     2.3012 H       
  39 H39            0.0278    -5.0705     3.3145 H       
  40 H40            1.3813    -1.8049     0.9230 H       
  41 H41            1.1019     5.9128    -0.2414 H       
  42 H42            2.4421     1.1990     0.3785 H       
  43 H43            4.7468     2.1061    -1.5970 H       
  44 H44            6.8797     1.1880    -2.4571 H       
  45 H45            9.1019     2.1347     1.8181 H       
  46 H46           11.0576     0.6191    -0.7949 H       
  47 H47           12.3251     0.9654     1.1183 H       
  48 H48           11.2600     2.3592     1.4205 H       
  49 H49           10.8034     0.7448     2.0151 H       
  50 H50            8.2704     3.3271     2.8664 H       
  51 H51            6.7592     4.0003     3.5231 H       
  52 H52            7.5849     2.1308     4.9274 H       
  53 H53            6.0260     1.7220     4.1716 H       
  54 H54            7.5372     1.0488     3.5148 H       
@<TRIPOS>BOND
   1    1    2 am
   2    1   13 1
   3    1   36 1
   4    2    3 2
   5    2    4 am
   6    4    5 1
   7    4   37 1
   8    5    6 ar
   9    5   10 ar
  10    6    7 ar
  11    6   38 1
  12    7    8 ar
  13    7   12 1
  14    8    9 ar
  15    8   39 1
  16    9   10 ar
  17    9   11 1
  18   10   40 1
  19   13   14 ar
  20   13   18 ar
  21   14   15 ar
  22   14   19 1
  23   15   16 ar
  24   15   41 1
  25   16   17 ar
  26   16   35 1
  27   17   18 ar
  28   17   22 1
  29   18   42 1
  30   20   21 am
  31   20   29 1
  32   20   33 1
  33   21   22 1
  34   21   30 2
  35   22   23 2
  36   23   24 1
  37   23   43 1
  38   24   25 ar
  39   24   29 ar
  40   25   26 ar
  41   25   44 1
  42   26   27 ar
  43   27   28 ar
  44   27   31 1
  45   28   29 ar
  46   28   45 1
  47   31   32 1
  48   31   46 1
  49   32   47 1
  50   32   48 1
  51   32   49 1
  52   33   34 1
  53   33   50 1
  54   33   51 1
  55   34   52 1
  56   34   53 1
  57   34   54 1

#	End of record

