#	Name: ASD01530041
#	Creating user name:	WinNT
#	Creation time:	15. 06. 2019 19:22

#	Modifying user name:	WinNT
#	Modification time:	15. 06. 2019 19:22

#	Program:	/corina/corina34_cracker 3.40 0067  02.08.2006

@<TRIPOS>MOLECULE
ASD01530041
  25   26    0    0    0
SMALL
NO_CHARGES


@<TRIPOS>ATOM
   1 C1            -0.0169     1.3924     0.0097 C.ar    
   2 C2             0.0021    -0.0041     0.0020 C.ar    
   3 C3             1.2090    -0.6691    -0.0131 C.ar    
   4 C4             2.4008     0.0413    -0.0206 C.ar    
   5 C5             2.3971     1.4196    -0.0132 C.ar    
   6 C6             1.1912     2.1101     0.0020 C.ar    
   7 C7            -1.0874     2.3949     0.0312 C.2     
   8 C8            -0.5009     3.5998     0.0287 C.2     
   9 N9             0.8661     3.4543     0.0123 N.am    
  10 C10            1.7545     4.4677     0.0061 C.2     
  11 O11            1.3217     5.7421     0.0156 O.3     
  12 O12            2.9457     4.2311    -0.0082 O.2     
  13 C13            2.3346     6.7824     0.0081 C.3     
  14 C14            1.6570     8.1541     0.0207 C.3     
  15 Cl15          -1.4865    -0.8972     0.0120 Cl      
  16 H16            1.2272    -1.7490    -0.0187 H       
  17 H17            3.3405    -0.4908    -0.0321 H       
  18 H18            3.3306     1.9626    -0.0188 H       
  19 H19           -2.1494     2.1987     0.0458 H       
  20 H20           -1.0242     4.5445     0.0416 H       
  21 H21            2.9662     6.6810     0.8906 H       
  22 H22            2.9462     6.6875    -0.8892 H       
  23 H23            1.0255     8.2555    -0.8619 H       
  24 H24            1.0454     8.2490     0.9180 H       
  25 H25            2.4174     8.9351     0.0150 H       
@<TRIPOS>BOND
   1    1    2 ar
   2    1    6 ar
   3    1    7 1
   4    2    3 ar
   5    2   15 1
   6    3    4 ar
   7    3   16 1
   8    4    5 ar
   9    4   17 1
  10    5    6 ar
  11    5   18 1
  12    6    9 1
  13    7    8 2
  14    7   19 1
  15    8    9 1
  16    8   20 1
  17    9   10 am
  18   10   11 1
  19   10   12 2
  20   11   13 1
  21   13   14 1
  22   13   21 1
  23   13   22 1
  24   14   23 1
  25   14   24 1
  26   14   25 1

#	End of record

