#	Name: ASD03330345
#	Creating user name:	WinNT
#	Creation time:	15. 06. 2019 20:37

#	Modifying user name:	WinNT
#	Modification time:	15. 06. 2019 20:37

#	Program:	/corina/corina34_cracker 3.40 0067  02.08.2006

@<TRIPOS>MOLECULE
ASD03330345
  68   71    0    0    0
SMALL
NO_CHARGES


@<TRIPOS>ATOM
   1 C1             0.7099     1.7065     0.7076 C.3     
   2 N2             0.6587     0.2623     0.4339 N.am    
   3 C3             1.5447    -0.2756    -0.6161 C.3     
   4 C4             2.8905     0.3827    -0.4355 C.2     
   5 N5             3.1179     1.4349     0.3903 N.pl3   
   6 C6             2.1028     2.0736     1.2313 C.3     
   7 C7             4.0698     0.0700    -1.0304 C.2     
   8 N8             5.0023     0.9342    -0.5699 N.2     
   9 C9             4.4371     1.7582     0.2824 C.2     
  10 C10            5.1190     2.8550     1.0042 C.ar    
  11 C11            6.3781     3.2900     0.5896 C.ar    
  12 C12            4.2936    -1.0155    -2.0017 C.2     
  13 O13            3.3691    -1.7303    -2.3385 O.2     
  14 C14            5.7453    -2.2950    -3.4824 C.3     
  15 N15            5.5228    -1.2160    -2.5168 N.am    
  16 C16           -0.1722    -0.5456     1.1220 C.2     
  17 O17           -0.2764    -1.7136     0.8125 O.2     
  18 C18            7.0085     4.3136     1.2667 C.ar    
  19 C19            6.3947     4.9084     2.3545 C.ar    
  20 C20            5.1462     4.4817     2.7706 C.ar    
  21 C21            4.5031     3.4625     2.0987 C.ar    
  22 C22           -0.9717     0.0025     2.2758 C.3     
  23 C23            7.1881    -3.0840    -5.3635 C.3     
  24 C24            6.9557    -1.9570    -4.3550 C.3     
  25 C25           -1.7019    -1.1429     2.9799 C.3     
  26 C26           -0.0312     0.6927     3.2658 C.3     
  27 C27            6.0058    -3.6037    -2.7338 C.3     
  28 C28            8.3985    -2.7460    -6.2361 C.3     
  29 C29            8.1380    -1.4373    -6.9847 C.3     
  30 C30            7.9057    -0.3104    -5.9763 C.3     
  31 C31            6.6952    -0.6484    -5.1037 C.3     
  32 C32           -1.9937     1.0141     1.7533 C.3     
  33 H33            0.5095     2.2582    -0.2109 H       
  34 H34           -0.0395     1.9616     1.4569 H       
  35 H35            1.6408    -1.3556    -0.5047 H       
  36 H36            1.1426    -0.0365    -1.6007 H       
  37 H37            2.2308     3.1555     1.1983 H       
  38 H38            2.2091     1.7248     2.2586 H       
  39 H39            6.8584     2.8262    -0.2593 H       
  40 H40            4.8629    -2.4064    -4.1125 H       
  41 H41            6.2601    -0.6458    -2.2482 H       
  42 H42            7.9834     4.6511     0.9470 H       
  43 H43            6.8925     5.7091     2.8814 H       
  44 H44            4.6723     4.9500     3.6205 H       
  45 H45            3.5285     3.1302     2.4244 H       
  46 H46            7.3737    -4.0163    -4.8301 H       
  47 H47            6.3057    -3.1953    -5.9936 H       
  48 H48            7.8381    -1.8457    -3.7249 H       
  49 H49           -0.9738    -1.8636     3.3522 H       
  50 H50           -2.2802    -0.7465     3.8145 H       
  51 H51           -2.3720    -1.6346     2.2747 H       
  52 H52            0.3515     1.6120     2.8227 H       
  53 H53           -0.5758     0.9292     4.1799 H       
  54 H54            0.8007     0.0285     3.5001 H       
  55 H55            5.1434    -3.8445    -2.1121 H       
  56 H56            6.1713    -4.4065    -3.4522 H       
  57 H57            6.8882    -3.4923    -2.1036 H       
  58 H58            9.2809    -2.6346    -5.6059 H       
  59 H59            8.5641    -3.5488    -6.9545 H       
  60 H60            9.0004    -1.1965    -7.6064 H       
  61 H61            7.2556    -1.5487    -7.6149 H       
  62 H62            8.7881    -0.1990    -5.3462 H       
  63 H63            7.7201     0.6219    -6.5097 H       
  64 H64            5.8128    -0.7597    -5.7338 H       
  65 H65            6.5297     0.1545    -4.3853 H       
  66 H66           -2.7737     0.4902     1.2008 H       
  67 H67           -2.4391     1.5474     2.5931 H       
  68 H68           -1.4965     1.7253     1.0937 H       
@<TRIPOS>BOND
   1    1    2 1
   2    1    6 1
   3    1   33 1
   4    1   34 1
   5    2    3 1
   6    2   16 am
   7    3    4 1
   8    3   35 1
   9    3   36 1
  10    4    5 1
  11    4    7 2
  12    5    6 1
  13    5    9 1
  14    6   37 1
  15    6   38 1
  16    7    8 1
  17    7   12 1
  18    8    9 2
  19    9   10 1
  20   10   11 ar
  21   10   21 ar
  22   11   18 ar
  23   11   39 1
  24   12   13 2
  25   12   15 am
  26   14   27 1
  27   14   15 1
  28   14   24 1
  29   14   40 1
  30   15   41 1
  31   16   17 2
  32   16   22 1
  33   18   19 ar
  34   18   42 1
  35   19   20 ar
  36   19   43 1
  37   20   21 ar
  38   20   44 1
  39   21   45 1
  40   22   25 1
  41   22   32 1
  42   22   26 1
  43   23   24 1
  44   23   28 1
  45   23   46 1
  46   23   47 1
  47   24   31 1
  48   24   48 1
  49   25   49 1
  50   25   50 1
  51   25   51 1
  52   26   52 1
  53   26   53 1
  54   26   54 1
  55   27   55 1
  56   27   56 1
  57   27   57 1
  58   28   29 1
  59   28   58 1
  60   28   59 1
  61   29   30 1
  62   29   60 1
  63   29   61 1
  64   30   31 1
  65   30   62 1
  66   30   63 1
  67   31   64 1
  68   31   65 1
  69   32   66 1
  70   32   67 1
  71   32   68 1

#	End of record

