#	Name: ASD01910086
#	Creating user name:	WinNT
#	Creation time:	15. 06. 2019 19:55

#	Modifying user name:	WinNT
#	Modification time:	15. 06. 2019 19:55

#	Program:	/corina/corina34_cracker 3.40 0067  02.08.2006

@<TRIPOS>MOLECULE
ASD01910086
  22   23    0    0    0
SMALL
NO_CHARGES


@<TRIPOS>ATOM
   1 C1            -0.0158     1.3144     0.0093 C.ar    
   2 N2             0.0021    -0.0041     0.0020 N.ar    
   3 C3             1.1439    -0.6688    -0.0125 C.ar    
   4 C4             2.3462     0.0505    -0.0202 C.ar    
   5 C5             2.2776     1.4499    -0.0120 C.ar    
   6 N6             1.0910     2.0310     0.0025 N.ar    
   7 C7             3.6087    -0.6251    -0.0354 C.1     
   8 C8             4.6438    -1.1789    -0.0479 C.1     
   9 C9             5.9063    -1.8545    -0.0632 C.ar    
  10 C10            7.0952    -1.1201    -0.0707 C.ar    
  11 C11            8.3076    -1.7770    -0.0849 C.ar    
  12 C12            8.3486    -3.1614    -0.0918 C.ar    
  13 C13            7.1741    -3.8953    -0.0849 C.ar    
  14 C14            5.9550    -3.2511    -0.0649 C.ar    
  15 Cl15           9.8792    -3.9804    -0.1097 Cl      
  16 H16           -0.9680     1.8239     0.0165 H       
  17 H17            1.1503    -1.7488    -0.0180 H       
  18 H18            3.1797     2.0437    -0.0171 H       
  19 H19            7.0646    -0.0406    -0.0657 H       
  20 H20            9.2271    -1.2107    -0.0910 H       
  21 H21            7.2131    -4.9746    -0.0911 H       
  22 H22            5.0398    -3.8246    -0.0591 H       
@<TRIPOS>BOND
   1    1    2 ar
   2    1    6 ar
   3    1   16 1
   4    2    3 ar
   5    3    4 ar
   6    3   17 1
   7    4    5 ar
   8    4    7 1
   9    5    6 ar
  10    5   18 1
  11    7    8 3
  12    8    9 1
  13    9   10 ar
  14    9   14 ar
  15   10   11 ar
  16   10   19 1
  17   11   12 ar
  18   11   20 1
  19   12   13 ar
  20   12   15 1
  21   13   14 ar
  22   13   21 1
  23   14   22 1

#	End of record

