#	Name: ASD01885165
#	Creating user name:	WinNT
#	Creation time:	15. 06. 2019 19:49

#	Modifying user name:	WinNT
#	Modification time:	15. 06. 2019 19:49

#	Program:	/corina/corina34_cracker 3.40 0067  02.08.2006

@<TRIPOS>MOLECULE
ASD01885165
  31   33    0    0    0
SMALL
NO_CHARGES


@<TRIPOS>ATOM
   1 N1            -0.0158     1.3155     0.0093 N.ar    
   2 C2             0.0021    -0.0041     0.0020 C.ar    
   3 C3             1.2028    -0.7222    -0.0133 C.ar    
   4 C4             2.4100    -0.0361    -0.0211 C.ar    
   5 C5             2.3677     1.3813    -0.0131 C.ar    
   6 C6             3.5427     2.1435    -0.0206 C.ar    
   7 C7             3.4644     3.5042    -0.0130 C.ar    
   8 C8             2.2294     4.1487     0.0026 C.ar    
   9 C9             1.0679     3.4400     0.0107 C.ar    
  10 C10            1.1083     2.0327     0.0024 C.ar    
  11 C11           -1.2827    -0.7443     0.0108 C.2     
  12 O12           -1.2839    -1.9593     0.0043 O.2     
  13 N13           -2.4492    -0.0694     0.0260 N.am    
  14 C14            3.7001    -0.7613    -0.0368 C.ar    
  15 C15            4.2997    -1.0986    -1.2520 C.ar    
  16 C16            5.5030    -1.7750    -1.2605 C.ar    
  17 C17            6.1157    -2.1198    -0.0662 C.ar    
  18 C18            5.5250    -1.7880     1.1427 C.ar    
  19 C19            4.3251    -1.1058     1.1635 C.ar    
  20 F20            7.2930    -2.7821    -0.0806 F       
  21 Cl21           3.5907    -0.6837     2.6788 Cl      
  22 Cl22           3.5332    -0.6686    -2.7490 Cl      
  23 H23            1.1908    -1.8021    -0.0186 H       
  24 H24            4.5061     1.6554    -0.0319 H       
  25 H25            4.3715     4.0903    -0.0188 H       
  26 H26            2.1933     5.2281     0.0086 H       
  27 H27            0.1186     3.9550     0.0228 H       
  28 H28           -2.4483     0.9006     0.0312 H       
  29 H29           -3.2897    -0.5537     0.0317 H       
  30 H30            5.9677    -2.0364    -2.1997 H       
  31 H31            6.0067    -2.0595     2.0704 H       
@<TRIPOS>BOND
   1    1    2 ar
   2    1   10 ar
   3    2    3 ar
   4    2   11 1
   5    3    4 ar
   6    3   23 1
   7    4    5 ar
   8    4   14 1
   9    5    6 ar
  10    5   10 ar
  11    6    7 ar
  12    6   24 1
  13    7    8 ar
  14    7   25 1
  15    8    9 ar
  16    8   26 1
  17    9   10 ar
  18    9   27 1
  19   11   12 2
  20   11   13 am
  21   13   28 1
  22   13   29 1
  23   14   15 ar
  24   14   19 ar
  25   15   16 ar
  26   15   22 1
  27   16   17 ar
  28   16   30 1
  29   17   18 ar
  30   17   20 1
  31   18   19 ar
  32   18   31 1
  33   19   21 1

#	End of record

