#	Name: ASD01140658
#	Creating user name:	WinNT
#	Creation time:	15. 06. 2019 19:01

#	Modifying user name:	WinNT
#	Modification time:	15. 06. 2019 19:01

#	Program:	/corina/corina34_cracker 3.40 0067  02.08.2006

@<TRIPOS>MOLECULE
ASD01140658
  41   43    0    0    0
SMALL
NO_CHARGES


@<TRIPOS>ATOM
   1 C1            -0.0099     1.4026    -0.0162 C.ar    
   2 C2             0.0058     0.0205    -0.0353 C.ar    
   3 C3             1.2107    -0.6569    -0.0501 C.ar    
   4 C4             2.3999     0.0478    -0.0462 C.ar    
   5 C5             2.3843     1.4299    -0.0281 C.ar    
   6 C6             1.1794     2.1073    -0.0118 C.ar    
   7 C7             3.6807     2.1981    -0.0234 C.3     
   8 N8             3.7538     3.0255     1.1835 N.pl3   
   9 C9             3.7466     3.0949    -1.2612 C.3     
  10 C10            4.7188     2.9557     2.1702 C.2     
  11 C11            2.8977     4.0002     1.5374 C.2     
  12 N12            3.2823     4.5176     2.6764 N.2     
  13 C13            4.3903     3.9072     3.0959 C.2     
  14 C14            5.8653     2.0435     2.2158 C.2     
  15 O15            6.6425     2.0899     3.1499 O.2     
  16 O16            6.0583     1.1527     1.2216 O.3     
  17 C17            7.2745     0.3611     1.2726 C.3     
  18 C18            8.5592     1.1327     1.1139 C.2     
  19 O19            8.5325     2.3934     0.6538 O.3     
  20 O20            9.6133     0.6165     1.4009 O.2     
  21 C21            9.8079     3.0758     0.5266 C.3     
  22 C22            7.2894    -0.8518     2.2051 C.3     
  23 C23            7.2225    -1.0522     0.6890 C.3     
  24 H24           -0.9512     1.9319    -0.0092 H       
  25 H25           -0.9233    -0.5301    -0.0383 H       
  26 H26            1.2229    -1.7368    -0.0643 H       
  27 H27            3.3413    -0.4815    -0.0571 H       
  28 H28            1.1672     3.1871     0.0020 H       
  29 H29            4.5172     1.4994    -0.0360 H       
  30 H30            4.6844     3.6506    -1.2579 H       
  31 H31            3.6923     2.4794    -2.1592 H       
  32 H32            2.9102     3.7937    -1.2486 H       
  33 H33            2.0308     4.3077     0.9714 H       
  34 H34            4.9320     4.1251     4.0045 H       
  35 H35           10.2897     3.1304     1.5028 H       
  36 H36           10.4471     2.5255    -0.1638 H       
  37 H37            9.6442     4.0837     0.1453 H       
  38 H38            8.2286    -1.0919     2.7035 H       
  39 H39            6.3862    -1.0556     2.7803 H       
  40 H40            6.2753    -1.3881     0.2671 H       
  41 H41            8.1177    -1.4242     0.1906 H       
@<TRIPOS>BOND
   1    1    2 ar
   2    1    6 ar
   3    1   24 1
   4    2    3 ar
   5    2   25 1
   6    3    4 ar
   7    3   26 1
   8    4    5 ar
   9    4   27 1
  10    5    6 ar
  11    5    7 1
  12    6   28 1
  13    7    8 1
  14    7    9 1
  15    7   29 1
  16    8   10 1
  17    8   11 1
  18    9   30 1
  19    9   31 1
  20    9   32 1
  21   10   14 1
  22   10   13 2
  23   11   12 2
  24   11   33 1
  25   12   13 1
  26   13   34 1
  27   14   15 2
  28   14   16 1
  29   16   17 1
  30   17   18 1
  31   17   22 1
  32   17   23 1
  33   18   19 1
  34   18   20 2
  35   19   21 1
  36   21   35 1
  37   21   36 1
  38   21   37 1
  39   22   23 1
  40   22   38 1
  41   22   39 1
  42   23   40 1
  43   23   41 1

#	End of record

