#	Name: ASD01815895
#	Creating user name:	WinNT
#	Creation time:	15. 06. 2019 19:34

#	Modifying user name:	WinNT
#	Modification time:	15. 06. 2019 19:34

#	Program:	/corina/corina34_cracker 3.40 0067  02.08.2006

@<TRIPOS>MOLECULE
ASD01815895
  50   55    0    0    0
SMALL
NO_CHARGES


@<TRIPOS>ATOM
   1 C1             0.1064     1.4781     0.3822 C.ar    
   2 C2             0.0862     0.0931     0.3734 C.ar    
   3 C3             1.2565    -0.6272     0.2340 C.ar    
   4 C4             2.4729     0.0371     0.1009 C.ar    
   5 C5             2.4904     1.4412     0.1101 C.ar    
   6 C6             1.3032     2.1567     0.2509 C.ar    
   7 N7             3.6499    -0.6795    -0.0383 N.pl3   
   8 C8             4.8508    -0.0941    -0.1698 C.2     
   9 C9             4.9914     1.2716    -0.1754 C.2     
  10 C10            3.7897     2.1249    -0.0323 C.2     
  11 C11            6.1081     2.2038    -0.2951 C.2     
  12 N12            5.5737     3.4421    -0.2254 N.am    
  13 N13            4.1875     3.3642    -0.0684 N.2     
  14 C14            6.3024     4.6305    -0.2991 C.ar    
  15 O15            7.2873     1.9211    -0.4303 O.2     
  16 C16            3.5814    -2.1429    -0.0416 C.3     
  17 C17            3.4354    -2.6357    -1.4583 C.ar    
  18 C18            4.5551    -2.7846    -2.2558 C.ar    
  19 C19            4.4245    -3.2356    -3.5548 C.ar    
  20 C20            3.1674    -3.5400    -4.0593 C.ar    
  21 C21            2.0450    -3.3900    -3.2559 C.ar    
  22 C22            2.1826    -2.9435    -1.9561 C.ar    
  23 N23            3.0315    -3.9976    -5.3774 N.pl3   
  24 C24            1.8719    -4.3278    -5.9897 C.2     
  25 F25            1.3218     3.5075     0.2595 F       
  26 F26            1.2209    -1.9777     0.2273 F       
  27 C27            2.1690    -4.7196    -7.2503 C.2     
  28 C28            3.5553    -4.6262    -7.4150 C.2     
  29 N29            4.0723    -4.1880    -6.2954 N.2     
  30 C30            5.6403     5.8522    -0.2150 C.ar    
  31 N31            7.6174     4.5858    -0.4430 N.ar    
  32 C32            7.7529     6.9311    -0.4464 C.ar    
  33 C33            6.3770     7.0236    -0.2898 C.ar    
  34 F34            4.2985     5.8952    -0.0631 F       
  35 C35            8.3435     5.6845    -0.5169 C.ar    
  36 H36           -0.8163     2.0294     0.4874 H       
  37 H37           -0.8537    -0.4287     0.4769 H       
  38 H38            5.7293    -0.7136    -0.2736 H       
  39 H39            4.4943    -2.5504     0.3926 H       
  40 H40            2.7230    -2.4678     0.5463 H       
  41 H41            5.5328    -2.5477    -1.8628 H       
  42 H42            5.2993    -3.3511    -4.1775 H       
  43 H43            1.0658    -3.6256    -3.6457 H       
  44 H44            1.3099    -2.8265    -1.3307 H       
  45 H45            0.8858    -4.2867    -5.5511 H       
  46 H46            1.4610    -5.0466    -7.9975 H       
  47 H47            4.1039    -4.8695    -8.3130 H       
  48 H48            8.3562     7.8247    -0.5085 H       
  49 H49            5.8911     7.9864    -0.2320 H       
  50 H50            9.4145     5.6083    -0.6339 H       
@<TRIPOS>BOND
   1    1    2 ar
   2    1    6 ar
   3    1   36 1
   4    2    3 ar
   5    2   37 1
   6    3    4 ar
   7    3   26 1
   8    4    5 ar
   9    4    7 1
  10    5    6 ar
  11    5   10 1
  12    6   25 1
  13    7    8 1
  14    7   16 1
  15    8    9 2
  16    8   38 1
  17    9   10 1
  18    9   11 1
  19   10   13 2
  20   11   12 am
  21   11   15 2
  22   12   13 1
  23   12   14 1
  24   14   30 ar
  25   14   31 ar
  26   16   17 1
  27   16   39 1
  28   16   40 1
  29   17   18 ar
  30   17   22 ar
  31   18   19 ar
  32   18   41 1
  33   19   20 ar
  34   19   42 1
  35   20   21 ar
  36   20   23 1
  37   21   22 ar
  38   21   43 1
  39   22   44 1
  40   23   24 1
  41   23   29 1
  42   24   27 2
  43   24   45 1
  44   27   28 1
  45   27   46 1
  46   28   29 2
  47   28   47 1
  48   30   34 1
  49   30   33 ar
  50   31   35 ar
  51   32   33 ar
  52   32   35 ar
  53   32   48 1
  54   33   49 1
  55   35   50 1

#	End of record

