#	Name: ASD03950092
#	Creating user name:	WinNT
#	Creation time:	15. 06. 2019 20:48

#	Modifying user name:	WinNT
#	Modification time:	15. 06. 2019 20:48

#	Program:	/corina/corina34_cracker 3.40 0067  02.08.2006

@<TRIPOS>MOLECULE
ASD03950092
  58   61    0    0    0
SMALL
NO_CHARGES


@<TRIPOS>ATOM
   1 N1            -0.0178     1.4650     0.0101 N.am    
   2 C2             0.0021    -0.0041     0.0020 C.3     
   3 C3             0.8803    -0.4916     1.1586 C.3     
   4 C4             2.2627     0.1563     1.0525 C.3     
   5 C5             2.1248     1.6768     1.1584 C.3     
   6 C6             1.2607     2.1889     0.0018 C.3     
   7 C7            -1.1868     2.1359     0.0193 C.2     
   8 O8            -2.2375     1.5256     0.0210 O.2     
   9 O9            -1.1902     3.4822     0.0266 O.3     
  10 N10            3.9433    -0.8092     4.1799 N.pl3   
  11 N11            2.9116    -0.2171     3.4446 N.2     
  12 C12            3.1403    -0.3472     2.1693 C.2     
  13 C13            4.4007    -1.0698     2.0164 C.ar    
  14 C14            5.1432    -1.4947     0.9115 C.ar    
  15 C15            6.3358    -2.1786     1.1010 C.ar    
  16 C16            6.8000    -2.4463     2.3899 C.ar    
  17 C17            6.0733    -2.0310     3.4988 C.ar    
  18 C18            4.8630    -1.3358     3.3190 C.ar    
  19 C19            6.6734    -2.3704    -1.3678 C.ar    
  20 C20            7.1224    -2.6288    -0.0744 C.ar    
  21 C21            8.3253    -3.3181     0.0983 C.ar    
  22 C22            9.0220    -3.7161    -1.0302 C.ar    
  23 C23            8.5097    -3.4215    -2.2802 C.ar    
  24 N24            7.3708    -2.7689    -2.4117 N.ar    
  25 C25            6.5682    -2.3175     4.8587 C.2     
  26 O26            5.9300    -1.9528     5.8273 O.2     
  27 N27            7.7277    -2.9835     5.0274 N.am    
  28 C28           -2.4856     4.1381     0.0364 C.3     
  29 C29           -3.2605     3.7182     1.2870 C.3     
  30 C30           -2.2890     5.6554     0.0437 C.3     
  31 C31           -3.2723     3.7317    -1.2114 C.3     
  32 H32           -1.0118    -0.3840     0.1278 H       
  33 H33            0.4128    -0.3587    -0.9433 H       
  34 H34            0.4202    -0.2139     2.1069 H       
  35 H35            0.9816    -1.5757     1.1066 H       
  36 H36            2.7120    -0.1016     0.0934 H       
  37 H37            1.6530     1.9341     2.1067 H       
  38 H38            3.1119     2.1361     1.1062 H       
  39 H39            1.7740     2.0131    -0.9436 H       
  40 H40            1.0772     3.2560     0.1274 H       
  41 H41            3.9988    -0.8376     5.1479 H       
  42 H42            4.7893    -1.2915    -0.0884 H       
  43 H43            7.7292    -2.9796     2.5260 H       
  44 H44            5.7430    -1.8424    -1.5157 H       
  45 H45            8.7024    -3.5346     1.0869 H       
  46 H46            9.9556    -4.2507    -0.9350 H       
  47 H47            9.0505    -3.7301    -3.1626 H       
  48 H48            8.2368    -3.2744     4.2547 H       
  49 H49            8.0531    -3.1719     5.9216 H       
  50 H50           -2.7000     4.0076     2.1759 H       
  51 H51           -4.2329     4.2105     1.2943 H       
  52 H52           -3.4005     2.6372     1.2818 H       
  53 H53           -1.7370     5.9545    -0.8473 H       
  54 H54           -3.2615     6.1477     0.0510 H       
  55 H55           -1.7286     5.9448     0.9326 H       
  56 H56           -3.4124     2.6508    -1.2166 H       
  57 H57           -4.2448     4.2241    -1.2041 H       
  58 H58           -2.7203     4.0309    -2.1024 H       
@<TRIPOS>BOND
   1    1    2 1
   2    1    6 1
   3    1    7 am
   4    2    3 1
   5    2   32 1
   6    2   33 1
   7    3    4 1
   8    3   34 1
   9    3   35 1
  10    4    5 1
  11    4   12 1
  12    4   36 1
  13    5    6 1
  14    5   37 1
  15    5   38 1
  16    6   39 1
  17    6   40 1
  18    7    8 2
  19    7    9 1
  20    9   28 1
  21   10   11 1
  22   10   18 1
  23   10   41 1
  24   11   12 2
  25   12   13 1
  26   13   14 ar
  27   13   18 ar
  28   14   15 ar
  29   14   42 1
  30   15   16 ar
  31   15   20 1
  32   16   17 ar
  33   16   43 1
  34   17   18 ar
  35   17   25 1
  36   19   20 ar
  37   19   24 ar
  38   19   44 1
  39   20   21 ar
  40   21   22 ar
  41   21   45 1
  42   22   23 ar
  43   22   46 1
  44   23   24 ar
  45   23   47 1
  46   25   26 2
  47   25   27 am
  48   27   48 1
  49   27   49 1
  50   28   29 1
  51   28   30 1
  52   28   31 1
  53   29   50 1
  54   29   51 1
  55   29   52 1
  56   30   53 1
  57   30   54 1
  58   30   55 1
  59   31   56 1
  60   31   57 1
  61   31   58 1

#	End of record

