#	Name: ASD03950074
#	Creating user name:	WinNT
#	Creation time:	15. 06. 2019 20:48

#	Modifying user name:	WinNT
#	Modification time:	15. 06. 2019 20:48

#	Program:	/corina/corina34_cracker 3.40 0067  02.08.2006

@<TRIPOS>MOLECULE
ASD03950074
  52   55    0    0    0
SMALL
NO_CHARGES


@<TRIPOS>ATOM
   1 N1            -0.1353     1.7472    -0.7798 N.pl3   
   2 N2            -0.1808     0.3500    -0.7424 N.2     
   3 C3             1.0208    -0.1326    -0.6050 C.2     
   4 C4             1.9473     0.9952    -0.5443 C.ar    
   5 C5             3.3338     1.1006    -0.4061 C.ar    
   6 C6             3.9337     2.3517    -0.3829 C.ar    
   7 C7             3.1606     3.5084    -0.4968 C.ar    
   8 C8             1.7809     3.4207    -0.6343 C.ar    
   9 C9             1.1615     2.1573    -0.6596 C.ar    
  10 C10            0.9689     4.6465    -0.7542 C.2     
  11 O11           -0.2384     4.5667    -0.8745 O.2     
  12 N12            1.5653     5.8549    -0.7305 N.am    
  13 N13            0.5691    -4.3604    -0.5204 N.3     
  14 C14            1.0200    -3.7231     0.7234 C.3     
  15 C15            0.6909    -2.2291     0.6810 C.3     
  16 C16            1.3892    -1.5916    -0.5234 C.3     
  17 C17            0.9390    -2.3053    -1.8011 C.3     
  18 C18            1.2609    -3.7971    -1.6868 C.3     
  19 C19            5.4066     2.4607    -0.2355 C.ar    
  20 C20            6.0148     3.7128    -0.2115 C.ar    
  21 C21            7.3915     3.8079    -0.0736 C.ar    
  22 C22            8.1593     2.6547     0.0401 C.ar    
  23 C23            7.5544     1.4127     0.0161 C.ar    
  24 C24            6.1835     1.3102    -0.1152 C.ar    
  25 N25            8.0064     5.0620    -0.0494 N.am    
  26 S26            7.9001     6.0103     1.3040 S.o2    
  27 O27            8.6445     7.1752     0.9750 O.2     
  28 O28            6.5066     6.0829     1.5725 O.2     
  29 C29            8.7479     5.0561     2.5930 C.3     
  30 H30           -0.9027     2.3320    -0.8795 H       
  31 H31            3.9376     0.2096    -0.3171 H       
  32 H32            3.6377     4.4771    -0.4775 H       
  33 H33            2.5285     5.9186    -0.6346 H       
  34 H34            1.0314     6.6609    -0.8094 H       
  35 H35            0.6886    -5.3614    -0.4777 H       
  36 H36            0.5128    -4.1828     1.5716 H       
  37 H37            2.0968    -3.8549     0.8293 H       
  38 H38           -0.3870    -2.0964     0.5889 H       
  39 H39            1.0398    -1.7535     1.5976 H       
  40 H40            2.4691    -1.6889    -0.4119 H       
  41 H41           -0.1351    -2.1738    -1.9322 H       
  42 H42            1.4650    -1.8841    -2.6578 H       
  43 H43            2.3365    -3.9286    -1.5695 H       
  44 H44            0.9286    -4.3105    -2.5890 H       
  45 H45            5.4163     4.6074    -0.3003 H       
  46 H46            9.2313     2.7297     0.1471 H       
  47 H47            8.1550     0.5195     0.1047 H       
  48 H48            5.7138     0.3378    -0.1290 H       
  49 H49            8.4957     5.3773    -0.8253 H       
  50 H50            9.7549     4.8075     2.2580 H       
  51 H51            8.8046     5.6490     3.5059 H       
  52 H52            8.1935     4.1384     2.7896 H       
@<TRIPOS>BOND
   1    1    2 1
   2    1    9 1
   3    1   30 1
   4    2    3 2
   5    3    4 1
   6    3   16 1
   7    4    5 ar
   8    4    9 ar
   9    5    6 ar
  10    5   31 1
  11    6    7 ar
  12    6   19 1
  13    7    8 ar
  14    7   32 1
  15    8    9 ar
  16    8   10 1
  17   10   11 2
  18   10   12 am
  19   12   33 1
  20   12   34 1
  21   13   14 1
  22   13   18 1
  23   13   35 1
  24   14   15 1
  25   14   36 1
  26   14   37 1
  27   15   16 1
  28   15   38 1
  29   15   39 1
  30   16   17 1
  31   16   40 1
  32   17   18 1
  33   17   41 1
  34   17   42 1
  35   18   43 1
  36   18   44 1
  37   19   20 ar
  38   19   24 ar
  39   20   21 ar
  40   20   45 1
  41   21   22 ar
  42   21   25 1
  43   22   23 ar
  44   22   46 1
  45   23   24 ar
  46   23   47 1
  47   24   48 1
  48   25   26 am
  49   25   49 1
  50   26   27 2
  51   26   28 2
  52   26   29 1
  53   29   50 1
  54   29   51 1
  55   29   52 1

#	End of record

