#	Name: ASD02508156
#	Creating user name:	WinNT
#	Creation time:	15. 06. 2019 20:23

#	Modifying user name:	WinNT
#	Modification time:	15. 06. 2019 20:23

#	Program:	/corina/corina34_cracker 3.40 0067  02.08.2006

@<TRIPOS>MOLECULE
ASD02508156
  32   34    0    0    0
SMALL
NO_CHARGES


@<TRIPOS>ATOM
   1 C1            -0.0623     1.3981     0.2673 C.ar    
   2 C2             0.0347     0.0068     0.4633 C.ar    
   3 C3             1.0776     2.1137    -0.0219 C.ar    
   4 C4             2.3075     1.4338    -0.1142 C.ar    
   5 C5             2.3868     0.0771     0.0786 C.ar    
   6 C6             1.2404    -0.6426     0.3709 C.ar    
   7 S7            -1.5258     2.3684     0.3591 S.3     
   8 C8            -0.9114     3.9725     0.0144 C.2     
   9 S9             0.8164     3.8386    -0.2425 S.3     
  10 S10            3.9405    -0.7448    -0.0442 S.o2    
  11 N11            4.2815    -1.3740     1.4492 N.am    
  12 C12            4.4705    -0.5218     2.5395 C.ar    
  13 O13           -1.5671     4.9972    -0.0343 O.2     
  14 O14            3.7406    -1.8533    -0.9105 O.2     
  15 O15            4.9107     0.2650    -0.2853 O.2     
  16 C16            3.8589    -0.8005     3.7552 C.ar    
  17 C17            5.2751     0.6034     2.4123 C.ar    
  18 C18            5.4598     1.4440     3.4923 C.ar    
  19 C19            4.8453     1.1664     4.6996 C.ar    
  20 C20            4.0479     0.0443     4.8312 C.ar    
  21 C21            1.3159    -2.1324     0.5844 C.3     
  22 H22           -0.8563    -0.5596     0.6908 H       
  23 H23            3.2049     1.9902    -0.3412 H       
  24 H24            4.3500    -2.3344     1.5667 H       
  25 H25            3.2360    -1.6767     3.8586 H       
  26 H26            5.7560     0.8204     1.4699 H       
  27 H27            6.0853     2.3190     3.3941 H       
  28 H28            4.9919     1.8250     5.5429 H       
  29 H29            3.5693    -0.1696     5.7755 H       
  30 H30            1.5902    -2.3378     1.6191 H       
  31 H31            0.3453    -2.5798     0.3702 H       
  32 H32            2.0667    -2.5573    -0.0817 H       
@<TRIPOS>BOND
   1    1    2 ar
   2    1    3 ar
   3    1    7 1
   4    2    6 ar
   5    2   22 1
   6    3    4 ar
   7    3    9 1
   8    4    5 ar
   9    4   23 1
  10    5    6 ar
  11    5   10 1
  12    6   21 1
  13    7    8 1
  14    8    9 1
  15    8   13 2
  16   10   11 am
  17   10   14 2
  18   10   15 2
  19   11   12 1
  20   11   24 1
  21   12   16 ar
  22   12   17 ar
  23   16   20 ar
  24   16   25 1
  25   17   18 ar
  26   17   26 1
  27   18   19 ar
  28   18   27 1
  29   19   20 ar
  30   19   28 1
  31   20   29 1
  32   21   30 1
  33   21   31 1
  34   21   32 1

#	End of record

