#	Name: ASD01884315
#	Creating user name:	WinNT
#	Creation time:	15. 06. 2019 19:48

#	Modifying user name:	WinNT
#	Modification time:	15. 06. 2019 19:48

#	Program:	/corina/corina34_cracker 3.40 0067  02.08.2006

@<TRIPOS>MOLECULE
ASD01884315
  53   55    0    0    0
SMALL
NO_CHARGES


@<TRIPOS>ATOM
   1 C1            -1.7169    -1.5620    -3.5622 C.ar    
   2 C2            -2.7801    -0.6789    -3.5209 C.ar    
   3 C3            -3.4001    -0.3983    -2.3188 C.ar    
   4 C4            -2.9551    -1.0036    -1.1521 C.ar    
   5 C5            -1.8881    -1.8895    -1.1964 C.ar    
   6 C6            -1.2752    -2.1709    -2.4020 C.ar    
   7 O7            -3.5630    -0.7290     0.0317 O.3     
   8 C8            -4.6680     0.0580     0.0128 C.ar    
   9 C9            -5.9247    -0.5142    -0.1511 C.ar    
  10 C10           -4.5421     1.4347     0.1632 C.ar    
  11 C11           -5.6619     2.2356     0.1454 C.ar    
  12 C12           -6.9242     1.6646    -0.0243 C.ar    
  13 C13           -7.0479     0.2821    -0.1706 C.ar    
  14 B14           -8.2030     2.5751    -0.0445 Du      
  15 C15           -1.0425    -1.8662    -4.8751 C.3     
  16 C16            0.4303    -2.1984    -4.6269 C.3     
  17 C17           -1.7304    -3.0619    -5.5369 C.3     
  18 O18           -1.1359    -0.7277    -5.7337 O.3     
  19 O19           -9.5675     2.1629    -0.2071 O.3     
  20 O20           -8.2636     4.0011     0.1017 O.3     
  21 C21           -9.2692     4.4228    -0.8436 C.3     
  22 C22          -10.1559     3.1728    -1.0536 C.3     
  23 C23          -10.1169     2.7315    -2.5180 C.3     
  24 C24          -11.5947     3.4610    -0.6205 C.3     
  25 C25          -10.0977     5.5711    -0.2639 C.3     
  26 C26           -8.6178     4.8463    -2.1616 C.3     
  27 H27           -3.1258    -0.2078    -4.4291 H       
  28 H28           -4.2302     0.2918    -2.2869 H       
  29 H29           -1.5396    -2.3616    -0.2898 H       
  30 H30           -0.4447    -2.8603    -2.4371 H       
  31 H31           -6.0199    -1.5841    -0.2635 H       
  32 H32           -3.5652     1.8760     0.2945 H       
  33 H33           -5.5637     3.3047     0.2629 H       
  34 H34           -8.0233    -0.1624    -0.3020 H       
  35 H35            0.5016    -3.0668    -3.9720 H       
  36 H36            0.9181    -2.4184    -5.5765 H       
  37 H37            0.9204    -1.3465    -4.1554 H       
  38 H38           -2.7796    -2.8253    -5.7137 H       
  39 H39           -1.2426    -3.2819    -6.4865 H       
  40 H40           -1.6591    -3.9303    -4.8820 H       
  41 H41           -0.7218    -0.8523    -6.5986 H       
  42 H42           -9.0914     2.4904    -2.7977 H       
  43 H43          -10.7459     1.8509    -2.6490 H       
  44 H44          -10.4858     3.5388    -3.1507 H       
  45 H45          -11.9948     4.2837    -1.2132 H       
  46 H46          -12.2056     2.5715    -0.7746 H       
  47 H47          -11.6089     3.7331     0.4349 H       
  48 H48           -9.4481     6.4235    -0.0652 H       
  49 H49          -10.8681     5.8603    -0.9787 H       
  50 H50          -10.5670     5.2476     0.6652 H       
  51 H51           -8.0454     4.0125    -2.5683 H       
  52 H52           -9.3913     5.1369    -2.8724 H       
  53 H53           -7.9524     5.6910    -1.9831 H       
@<TRIPOS>BOND
   1    1    2 ar
   2    1   15 1
   3    1    6 ar
   4    2    3 ar
   5    2   27 1
   6    3    4 ar
   7    3   28 1
   8    4    5 ar
   9    4    7 1
  10    5    6 ar
  11    5   29 1
  12    6   30 1
  13    7    8 1
  14    8    9 ar
  15    8   10 ar
  16    9   13 ar
  17    9   31 1
  18   10   11 ar
  19   10   32 1
  20   11   12 ar
  21   11   33 1
  22   12   13 ar
  23   12   14 1
  24   13   34 1
  25   14   19 1
  26   14   20 1
  27   15   16 1
  28   15   17 1
  29   15   18 1
  30   16   35 1
  31   16   36 1
  32   16   37 1
  33   17   38 1
  34   17   39 1
  35   17   40 1
  36   18   41 1
  37   19   22 1
  38   20   21 1
  39   21   22 1
  40   21   25 1
  41   21   26 1
  42   22   23 1
  43   22   24 1
  44   23   42 1
  45   23   43 1
  46   23   44 1
  47   24   45 1
  48   24   46 1
  49   24   47 1
  50   25   48 1
  51   25   49 1
  52   25   50 1
  53   26   51 1
  54   26   52 1
  55   26   53 1

#	End of record

