#	Name: ASD01811940
#	Creating user name:	WinNT
#	Creation time:	15. 06. 2019 19:27

#	Modifying user name:	WinNT
#	Modification time:	15. 06. 2019 19:27

#	Program:	/corina/corina34_cracker 3.40 0067  02.08.2006

@<TRIPOS>MOLECULE
ASD01811940
  56   60    0    0    0
SMALL
NO_CHARGES


@<TRIPOS>ATOM
   1 C1            -0.0166     1.3724     0.0096 C.ar    
   2 C2             0.0021    -0.0041     0.0020 C.ar    
   3 C3             1.2043    -0.6993    -0.0132 C.ar    
   4 C4             2.4046    -0.0233    -0.0210 C.ar    
   5 C5             2.4078     1.3701    -0.0136 C.ar    
   6 C6             1.1870     2.0804     0.0019 C.ar    
   7 C7             2.3344     4.0944     0.0009 C.2     
   8 N8             1.2150     3.4367     0.0085 N.2     
   9 C9             3.6573     2.1452    -0.0209 C.2     
  10 N10            3.5533     3.4947    -0.0122 N.am    
  11 C11            4.7664     4.3161    -0.0200 C.3     
  12 C12            4.7954     5.1946     1.2323 C.3     
  13 C13            6.0622     6.0525     1.2242 C.3     
  14 C14            6.0690     6.9403    -0.0218 C.3     
  15 C15            6.0400     6.0618    -1.2741 C.3     
  16 C16            4.7731     5.2039    -1.2660 C.3     
  17 O17            4.7429     1.5947    -0.0338 O.2     
  18 C18            1.1957    -2.2063    -0.0207 C.3     
  19 C19            1.1789    -2.7014    -1.4439 C.ar    
  20 C20           -0.0219    -2.9184    -2.0930 C.ar    
  21 C21            2.3692    -2.9384    -2.1172 C.ar    
  22 C22            2.3106    -3.3922    -3.4232 C.ar    
  23 C23            1.0652    -3.5945    -4.0143 C.ar    
  24 N24           -0.0498    -3.3513    -3.3375 N.ar    
  25 O25            4.7891     4.3654     2.3962 O.3     
  26 C26            0.9853    -4.0801    -5.4136 C.2     
  27 C27            2.0707    -4.4692    -6.2236 C.2     
  28 N28            1.5986    -4.8346    -7.3857 N.2     
  29 N29            0.2057    -4.6948    -7.3645 N.pl3   
  30 C30           -0.1539    -4.2372    -6.1496 C.2     
  31 C31           -0.7046    -4.9990    -8.4713 C.3     
  32 H32           -0.9577     1.9022     0.0169 H       
  33 H33           -0.9297    -0.5501     0.0083 H       
  34 H34            3.3363    -0.5693    -0.0325 H       
  35 H35            2.2945     5.1737     0.0067 H       
  36 H36            5.6434     3.6689    -0.0302 H       
  37 H37            3.9184     5.8418     1.2426 H       
  38 H38            6.0829     6.6784     2.1164 H       
  39 H39            6.9392     5.4053     1.2140 H       
  40 H40            5.1920     7.5875    -0.0116 H       
  41 H41            6.9715     7.5515    -0.0276 H       
  42 H42            6.0448     6.6942    -2.1618 H       
  43 H43            6.9170     5.4146    -1.2843 H       
  44 H44            4.7525     4.5780    -2.1582 H       
  45 H45            3.8961     5.8511    -1.2558 H       
  46 H46            2.0885    -2.5772     0.4826 H       
  47 H47            0.3087    -2.5671     0.5000 H       
  48 H48           -0.9499    -2.7310    -1.5732 H       
  49 H49            3.3201    -2.7720    -1.6328 H       
  50 H50            3.2175    -3.5864    -3.9766 H       
  51 H51            4.8065     4.8564     3.2290 H       
  52 H52            3.1112    -4.4656    -5.9344 H       
  53 H53           -1.1608    -4.0303    -5.8183 H       
  54 H54           -1.0224    -6.0396    -8.4048 H       
  55 H55           -1.5771    -4.3483    -8.4135 H       
  56 H56           -0.1916    -4.8357    -9.4190 H       
@<TRIPOS>BOND
   1    1    2 ar
   2    1    6 ar
   3    1   32 1
   4    2    3 ar
   5    2   33 1
   6    3    4 ar
   7    3   18 1
   8    4    5 ar
   9    4   34 1
  10    5    9 1
  11    5    6 ar
  12    6    8 1
  13    7    8 2
  14    7   10 1
  15    7   35 1
  16    9   10 am
  17    9   17 2
  18   10   11 1
  19   11   12 1
  20   11   16 1
  21   11   36 1
  22   12   13 1
  23   12   25 1
  24   12   37 1
  25   13   14 1
  26   13   38 1
  27   13   39 1
  28   14   15 1
  29   14   40 1
  30   14   41 1
  31   15   16 1
  32   15   42 1
  33   15   43 1
  34   16   44 1
  35   16   45 1
  36   18   19 1
  37   18   46 1
  38   18   47 1
  39   19   21 ar
  40   19   20 ar
  41   20   24 ar
  42   20   48 1
  43   21   22 ar
  44   21   49 1
  45   22   23 ar
  46   22   50 1
  47   23   24 ar
  48   23   26 1
  49   25   51 1
  50   26   27 1
  51   26   30 2
  52   27   28 2
  53   27   52 1
  54   28   29 1
  55   29   30 1
  56   29   31 1
  57   30   53 1
  58   31   54 1
  59   31   55 1
  60   31   56 1

#	End of record

