#	Name: ASD00842428
#	Creating user name:	WinNT
#	Creation time:	15. 06. 2019 18:44

#	Modifying user name:	WinNT
#	Modification time:	15. 06. 2019 18:44

#	Program:	/corina/corina34_cracker 3.40 0067  02.08.2006

@<TRIPOS>MOLECULE
ASD00842428
  97  102    0    0    0
SMALL
NO_CHARGES


@<TRIPOS>ATOM
   1 C1            -0.0167     1.3829     0.0096 C.ar    
   2 C2             0.0021    -0.0041     0.0020 C.ar    
   3 C3             1.2143    -0.6791    -0.0132 C.ar    
   4 C4             2.3989     0.0312    -0.0207 C.ar    
   5 C5             2.3774     1.4139    -0.0126 C.ar    
   6 C6             1.1710     2.0888     0.0021 C.ar    
   7 C7             1.2384    -2.1858    -0.0210 C.3     
   8 C8             0.4954    -2.7222    -1.2260 C.2     
   9 O9             2.6066    -2.6718    -0.0089 O.3     
  10 C10            3.3986    -2.2936    -1.0299 C.2     
  11 N11            4.6795    -2.7098    -1.0791 N.am    
  12 O12            2.9584    -1.5772    -1.9071 O.2     
  13 C13            5.5617    -2.3085    -2.1854 C.3     
  14 C14            6.8552    -1.7378    -1.5941 C.3     
  15 N15            7.4344    -2.7122    -0.6599 N.3     
  16 C16            6.5387    -2.9566     0.4785 C.3     
  17 C17            5.2340    -3.5723    -0.0246 C.3     
  18 C18            8.7611    -2.2783    -0.2021 C.3     
  19 C19            9.2789    -3.2509     0.8612 C.3     
  20 C20           10.6860    -2.8285     1.2899 C.3     
  21 N21           11.5766    -2.8321     0.1223 N.3     
  22 C22           11.1258    -1.8710    -0.8923 C.3     
  23 C23            9.7318    -2.2648    -1.3862 C.3     
  24 C24           12.9658    -2.5661     0.5190 C.3     
  25 O25            0.7747    -2.5266    -2.3899 O.2     
  26 N26           -0.5308    -3.4561    -0.7646 N.am    
  27 C27            0.4677    -2.7343     1.1584 C.ar    
  28 C28           -0.5778    -3.4853     0.6264 C.ar    
  29 C29            0.6314    -2.6120     2.5149 C.ar    
  30 C30           -0.2617    -3.2488     3.3840 C.ar    
  31 C31           -1.3150    -4.0053     2.8564 C.ar    
  32 C32           -1.4681    -4.1216     1.4914 C.ar    
  33 F33           -2.1826    -4.6239     3.6870 F       
  34 C34           -0.9796    -5.8517    -2.0429 C.ar    
  35 C35            0.2002    -6.0085    -2.7561 C.ar    
  36 C36           -1.6521    -6.9604    -1.5650 C.ar    
  37 C37           -1.1514    -8.2272    -1.7955 C.ar    
  38 C38            0.0284    -8.3893    -2.5084 C.ar    
  39 C39            0.7045    -7.2789    -2.9891 C.ar    
  40 O40            0.5202    -9.6358    -2.7352 O.3     
  41 O41            0.8607    -4.9178    -3.2262 O.3     
  42 C42            2.0689    -5.1539    -3.9519 C.3     
  43 C43           -0.2289   -10.7340    -2.2109 C.3     
  44 C44           13.8937    -2.8219    -0.6703 C.3     
  45 C45           15.3405    -2.5448    -0.2571 C.3     
  46 S46           -1.6173    -4.2372    -1.7401 S.o2    
  47 O47           -2.7976    -4.4103    -0.9681 O.2     
  48 O48           -1.5974    -3.5574    -2.9878 O.2     
  49 O49           -1.1648    -0.7006     0.0099 O.3     
  50 C50           -3.5740    -0.8895     0.0328 C.3     
  51 C51           -2.3744     0.0601     0.0260 C.3     
  52 C52           -0.0993    -3.1278     4.8016 C.1     
  53 N53            0.0296    -3.0319     5.9262 N.1     
  54 H54           -0.9590     1.9106     0.0170 H       
  55 H55            3.3426    -0.4937    -0.0325 H       
  56 H56            3.3047     1.9675    -0.0178 H       
  57 H57            1.1569     3.1687     0.0084 H       
  58 H58            5.7931    -3.1766    -2.8026 H       
  59 H59            5.0682    -1.5472    -2.7896 H       
  60 H60            7.5647    -1.5374    -2.3969 H       
  61 H61            6.6348    -0.8116    -1.0633 H       
  62 H62            7.0187    -3.6402     1.1788 H       
  63 H63            6.3227    -2.0135     0.9804 H       
  64 H64            4.5240    -3.6492     0.7988 H       
  65 H65            5.4310    -4.5624    -0.4357 H       
  66 H66            8.6902    -1.2773     0.2235 H       
  67 H67            8.6145    -3.2330     1.7251 H       
  68 H68            9.3117    -4.2587     0.4474 H       
  69 H69           10.6502    -1.8260     1.7163 H       
  70 H70           11.0632    -3.5273     2.0366 H       
  71 H71           11.0879    -0.8730    -0.4557 H       
  72 H72           11.8224    -1.8743    -1.7306 H       
  73 H73            9.7718    -3.2571    -1.8354 H       
  74 H74            9.3910    -1.5424    -2.1279 H       
  75 H75           13.0604    -1.5278     0.8369 H       
  76 H76           13.2409    -3.2248     1.3427 H       
  77 H77            1.4477    -2.0262     2.9111 H       
  78 H78           -2.2823    -4.7066     1.0898 H       
  79 H79           -2.5702    -6.8363    -1.0101 H       
  80 H80           -1.6783    -9.0921    -1.4204 H       
  81 H81            1.6225    -7.4030    -3.5443 H       
  82 H82            2.7813    -5.6745    -3.3120 H       
  83 H83            1.8529    -5.7656    -4.8279 H       
  84 H84            2.4940    -4.2018    -4.2695 H       
  85 H85           -0.3011   -10.6403    -1.1274 H       
  86 H86           -1.2295   -10.7307    -2.6433 H       
  87 H87            0.2725   -11.6687    -2.4622 H       
  88 H88           13.7991    -3.8602    -0.9882 H       
  89 H89           13.6185    -2.1632    -1.4940 H       
  90 H90           15.4351    -1.5065     0.0608 H       
  91 H91           15.6156    -3.2035     0.5666 H       
  92 H92           16.0016    -2.7270    -1.1044 H       
  93 H93           -3.5489    -1.5131    -0.8609 H       
  94 H94           -3.5312    -1.5227     0.9190 H       
  95 H95           -4.4966    -0.3093     0.0451 H       
  96 H96           -2.3995     0.6837     0.9196 H       
  97 H97           -2.4172     0.6932    -0.8603 H       
@<TRIPOS>BOND
   1    1    2 ar
   2    1    6 ar
   3    1   54 1
   4    2    3 ar
   5    2   49 1
   6    3    4 ar
   7    3    7 1
   8    4    5 ar
   9    4   55 1
  10    5    6 ar
  11    5   56 1
  12    6   57 1
  13    7    8 1
  14    7    9 1
  15    7   27 1
  16    8   25 2
  17    8   26 am
  18    9   10 1
  19   10   11 am
  20   10   12 2
  21   11   13 1
  22   11   17 1
  23   13   14 1
  24   13   58 1
  25   13   59 1
  26   14   15 1
  27   14   60 1
  28   14   61 1
  29   15   16 1
  30   15   18 1
  31   16   17 1
  32   16   62 1
  33   16   63 1
  34   17   64 1
  35   17   65 1
  36   18   19 1
  37   18   23 1
  38   18   66 1
  39   19   20 1
  40   19   67 1
  41   19   68 1
  42   20   21 1
  43   20   69 1
  44   20   70 1
  45   21   22 1
  46   21   24 1
  47   22   23 1
  48   22   71 1
  49   22   72 1
  50   23   73 1
  51   23   74 1
  52   24   44 1
  53   24   75 1
  54   24   76 1
  55   26   46 am
  56   26   28 1
  57   27   28 ar
  58   27   29 ar
  59   28   32 ar
  60   29   30 ar
  61   29   77 1
  62   30   31 ar
  63   30   52 1
  64   31   32 ar
  65   31   33 1
  66   32   78 1
  67   34   35 ar
  68   34   36 ar
  69   34   46 1
  70   35   41 1
  71   35   39 ar
  72   36   37 ar
  73   36   79 1
  74   37   38 ar
  75   37   80 1
  76   38   39 ar
  77   38   40 1
  78   39   81 1
  79   40   43 1
  80   41   42 1
  81   42   82 1
  82   42   83 1
  83   42   84 1
  84   43   85 1
  85   43   86 1
  86   43   87 1
  87   44   45 1
  88   44   88 1
  89   44   89 1
  90   45   90 1
  91   45   91 1
  92   45   92 1
  93   46   47 2
  94   46   48 2
  95   49   51 1
  96   50   51 1
  97   50   93 1
  98   50   94 1
  99   50   95 1
 100   51   96 1
 101   51   97 1
 102   52   53 3

#	End of record

