#	Name: ASD01028201
#	Creating user name:	WinNT
#	Creation time:	15. 06. 2019 18:56

#	Modifying user name:	WinNT
#	Modification time:	15. 06. 2019 18:56

#	Program:	/corina/corina34_cracker 3.40 0067  02.08.2006

@<TRIPOS>MOLECULE
ASD01028201
  56   60    0    0    0
SMALL
NO_CHARGES


@<TRIPOS>ATOM
   1 C1             0.2720     4.1048     0.4674 C.ar    
   2 C2            -0.1819     2.8057     0.4552 C.ar    
   3 C3             1.6399     4.3853     0.3934 C.ar    
   4 C4             2.5528     3.3802     0.3076 C.ar    
   5 C5             2.1220     2.0450     0.2929 C.ar    
   6 C6             0.7393     1.7494     0.3673 C.ar    
   7 C7             3.0448     0.9784     0.2042 C.ar    
   8 C8             2.5459    -0.3120     0.1944 C.ar    
   9 C9             1.1749    -0.5213     0.2708 C.ar    
  10 N10            0.3263     0.4765     0.3533 N.ar    
  11 O11            4.3782     1.2126     0.1305 O.3     
  12 C12            5.2335     0.0711     0.0436 C.3     
  13 C13            6.6691     0.5235    -0.0296 C.2     
  14 N14            7.4990     0.7306     1.0232 N.pl3   
  15 C15            8.6993     1.1317     0.4846 C.2     
  16 N16            8.5433     1.1476    -0.8288 N.2     
  17 N17            7.3442     0.7826    -1.1217 N.2     
  18 N18            7.3552     0.6177     2.4073 N.2     
  19 C19            8.3624     0.8927     3.2067 C.2     
  20 C20            9.6065     1.3065     2.6847 C.2     
  21 C21            9.7769     1.4253     1.3415 C.2     
  22 C22            8.1887     0.7668     4.6742 C.ar    
  23 C23            6.9629     0.3591     5.1975 C.ar    
  24 C24            9.2544     1.0513     5.5288 C.ar    
  25 C25            9.0964     0.9354     6.8912 C.ar    
  26 C26            7.8678     0.5321     7.4204 C.ar    
  27 C27            6.8004     0.2417     6.5632 C.ar    
  28 O28           -0.6194     5.1266     0.5467 O.3     
  29 C29           -0.0870     6.4527     0.5553 C.3     
  30 C30            7.6976     0.4071     8.8815 C.2     
  31 N31            8.6632    -0.1674     9.6258 N.am    
  32 C32            8.5508    -0.1825    11.0864 C.3     
  33 F33            5.6110    -0.1481     7.0718 F       
  34 O34            6.6863     0.8225     9.4134 O.2     
  35 C35            9.8252    -0.7769     8.9742 C.3     
  36 H36           -1.2405     2.5998     0.5131 H       
  37 H37            1.9756     5.4117     0.4041 H       
  38 H38            3.6066     3.6096     0.2506 H       
  39 H39            3.2199    -1.1533     0.1274 H       
  40 H40            0.7967    -1.5329     0.2623 H       
  41 H41            5.0944    -0.5551     0.9249 H       
  42 H42            4.9866    -0.5007    -0.8510 H       
  43 H43           10.4246     1.5292     3.3537 H       
  44 H44           10.7269     1.7417     0.9367 H       
  45 H45            6.1402     0.1354     4.5345 H       
  46 H46           10.2046     1.3624     5.1207 H       
  47 H47            9.9223     1.1560     7.5513 H       
  48 H48            0.5738     6.5734     1.4137 H       
  49 H49            0.4748     6.6247    -0.3628 H       
  50 H50           -0.9037     7.1717     0.6217 H       
  51 H51            7.6273     0.3135    11.3849 H       
  52 H52            8.5399    -1.2138    11.4393 H       
  53 H53            9.4017     0.3414    11.5217 H       
  54 H54           10.5981    -0.0220     8.8296 H       
  55 H55           10.2138    -1.5794     9.6010 H       
  56 H56            9.5282    -1.1826     8.0071 H       
@<TRIPOS>BOND
   1    1    2 ar
   2    1    3 ar
   3    1   28 1
   4    2    6 ar
   5    2   36 1
   6    3    4 ar
   7    3   37 1
   8    4    5 ar
   9    4   38 1
  10    5    6 ar
  11    5    7 ar
  12    6   10 ar
  13    7    8 ar
  14    7   11 1
  15    8    9 ar
  16    8   39 1
  17    9   10 ar
  18    9   40 1
  19   11   12 1
  20   12   13 1
  21   12   41 1
  22   12   42 1
  23   13   14 1
  24   13   17 2
  25   14   15 1
  26   14   18 1
  27   15   16 2
  28   15   21 1
  29   16   17 1
  30   18   19 2
  31   19   20 1
  32   19   22 1
  33   20   21 2
  34   20   43 1
  35   21   44 1
  36   22   23 ar
  37   22   24 ar
  38   23   27 ar
  39   23   45 1
  40   24   25 ar
  41   24   46 1
  42   25   26 ar
  43   25   47 1
  44   26   27 ar
  45   26   30 1
  46   27   33 1
  47   28   29 1
  48   29   48 1
  49   29   49 1
  50   29   50 1
  51   30   31 am
  52   30   34 2
  53   31   32 1
  54   31   35 1
  55   32   51 1
  56   32   52 1
  57   32   53 1
  58   35   54 1
  59   35   55 1
  60   35   56 1

#	End of record

