#	Name: ASD01350003
#	Creating user name:	WinNT
#	Creation time:	15. 06. 2019 19:16

#	Modifying user name:	WinNT
#	Modification time:	15. 06. 2019 19:16

#	Program:	/corina/corina34_cracker 3.40 0067  02.08.2006

@<TRIPOS>MOLECULE
ASD01350003
  58   61    0    0    0
SMALL
NO_CHARGES


@<TRIPOS>ATOM
   1 O1            -0.3401     1.5879     0.3930 O.3     
   2 C2            -0.0980     0.2014     0.1458 C.3     
   3 C3             0.8480     2.3692     0.5341 C.3     
   4 C4             0.5829     3.7760     0.0633 C.ar    
   5 C5             1.2639     2.3942     1.9823 C.ar    
   6 C6            -1.4333    -0.5336     0.0129 C.3     
   7 N7            -2.1438    -0.0470    -1.1772 N.3     
   8 C8            -1.5544    -0.5983    -2.4041 C.3     
   9 C9            -2.2223     0.0403    -3.6240 C.3     
  10 C10           -3.7260    -0.2458    -3.5847 C.3     
  11 C11           -4.3065     0.2956    -2.2753 C.3     
  12 C12           -3.5782    -0.3503    -1.0945 C.3     
  13 C13            2.6056     2.4064     2.3155 C.ar    
  14 C14            2.9881     2.4298     3.6433 C.ar    
  15 C15            2.0271     2.4408     4.6400 C.ar    
  16 C16            0.6837     2.4285     4.3051 C.ar    
  17 C17            0.3035     2.4105     2.9765 C.ar    
  18 C18            1.5422     4.4521    -0.6674 C.ar    
  19 C19            1.3000     5.7421    -1.1001 C.ar    
  20 C20            0.0961     6.3573    -0.8015 C.ar    
  21 C21           -0.8639     5.6792    -0.0696 C.ar    
  22 C22           -0.6216     4.3874     0.3575 C.ar    
  23 C23           -4.3981     0.4310    -4.7514 C.ar    
  24 O24           -3.9460    -1.6559    -3.6576 O.3     
  25 C25           -5.5382    -0.1195    -5.3065 C.ar    
  26 C26           -6.1550     0.5007    -6.3766 C.ar    
  27 C27           -5.6312     1.6729    -6.8922 C.ar    
  28 C28           -4.4902     2.2234    -6.3363 C.ar    
  29 C29           -3.8775     1.6053    -5.2626 C.ar    
  30 Cl30          -6.4051     2.4522    -8.2366 Cl      
  31 F31           -0.1416     7.6185    -1.2235 F       
  32 F32            2.4000     2.4632     5.9383 F       
  33 H33            0.4710     0.0909    -0.7773 H       
  34 H34            0.4688    -0.2220     0.9750 H       
  35 H35            1.6452     1.9296    -0.0654 H       
  36 H36           -1.2508    -1.6038    -0.0852 H       
  37 H37           -2.0399    -0.3483     0.8993 H       
  38 H38           -0.4858    -0.3843    -2.4215 H       
  39 H39           -1.7091    -1.6770    -2.4284 H       
  40 H40           -2.0562     1.1174    -3.6076 H       
  41 H41           -1.7955    -0.3805    -4.5344 H       
  42 H42           -4.1732     1.3768    -2.2377 H       
  43 H43           -5.3688     0.0573    -2.2222 H       
  44 H44           -3.7234    -1.4302    -1.1249 H       
  45 H45           -3.9795     0.0437    -0.1608 H       
  46 H46            3.3550     2.3975     1.5379 H       
  47 H47            4.0363     2.4390     3.9034 H       
  48 H48           -0.0667     2.4371     5.0817 H       
  49 H49           -0.7443     2.4009     2.7150 H       
  50 H50            2.4813     3.9722    -0.8999 H       
  51 H51            2.0497     6.2702    -1.6706 H       
  52 H52           -1.8033     6.1581     0.1639 H       
  53 H53           -1.3702     3.8582     0.9284 H       
  54 H54           -4.8787    -1.9100    -3.6376 H       
  55 H55           -5.9467    -1.0347    -4.9042 H       
  56 H56           -7.0455     0.0703    -6.8104 H       
  57 H57           -4.0809     3.1384    -6.7383 H       
  58 H58           -2.9868     2.0349    -4.8285 H       
@<TRIPOS>BOND
   1    1    2 1
   2    1    3 1
   3    2    6 1
   4    2   33 1
   5    2   34 1
   6    3    4 1
   7    3    5 1
   8    3   35 1
   9    4   18 ar
  10    4   22 ar
  11    5   13 ar
  12    5   17 ar
  13    6    7 1
  14    6   36 1
  15    6   37 1
  16    7    8 1
  17    7   12 1
  18    8    9 1
  19    8   38 1
  20    8   39 1
  21    9   10 1
  22    9   40 1
  23    9   41 1
  24   10   11 1
  25   10   23 1
  26   10   24 1
  27   11   12 1
  28   11   42 1
  29   11   43 1
  30   12   44 1
  31   12   45 1
  32   13   14 ar
  33   13   46 1
  34   14   15 ar
  35   14   47 1
  36   15   16 ar
  37   15   32 1
  38   16   17 ar
  39   16   48 1
  40   17   49 1
  41   18   19 ar
  42   18   50 1
  43   19   20 ar
  44   19   51 1
  45   20   21 ar
  46   20   31 1
  47   21   22 ar
  48   21   52 1
  49   22   53 1
  50   23   25 ar
  51   23   29 ar
  52   24   54 1
  53   25   26 ar
  54   25   55 1
  55   26   27 ar
  56   26   56 1
  57   27   28 ar
  58   27   30 1
  59   28   29 ar
  60   28   57 1
  61   29   58 1

#	End of record

