#	Name: ASD06710042
#	Creating user name:	WinNT
#	Creation time:	15. 06. 2019 21:08

#	Modifying user name:	WinNT
#	Modification time:	15. 06. 2019 21:08

#	Program:	/corina/corina34_cracker 3.40 0067  02.08.2006

@<TRIPOS>MOLECULE
ASD06710042
  35   36    0    0    0
SMALL
NO_CHARGES


@<TRIPOS>ATOM
   1 C1            -0.0212     1.5202     0.1328 C.3     
   2 C2            -1.4307    -0.5277    -0.1159 C.3     
   3 C3             2.8495    -0.4653    -2.4327 C.ar    
   4 C4             2.2111    -1.1003    -3.4881 C.ar    
   5 C5             0.8543    -1.3787    -3.4086 C.ar    
   6 C6             0.1425    -1.0236    -2.2792 C.ar    
   7 C7             0.7811    -0.3908    -1.2287 C.ar    
   8 C8             2.1331    -0.1119    -1.3056 C.ar    
   9 C9             0.8854    -1.9651     1.2814 C.ar    
  10 C10            0.6572    -0.6028     1.2200 C.ar    
  11 C11            0.0021    -0.0041     0.0020 C.3     
  12 C12            1.4858    -2.5165     2.3967 C.ar    
  13 C13            1.8598    -1.7020     3.4557 C.ar    
  14 C14            1.6292    -0.3355     3.3918 C.ar    
  15 C15            1.0285     0.2110     2.2743 C.ar    
  16 O16            2.9135    -1.4487    -4.5981 O.3     
  17 O17            2.4501    -2.2420     4.5542 O.3     
  18 C18            2.1911    -2.0994    -5.6453 C.3     
  19 H19            0.9995     1.8932     0.2168 H       
  20 H20           -0.4950     1.9532    -0.7481 H       
  21 H21           -0.5846     1.7999     1.0230 H       
  22 H22           -1.9941    -0.2480     0.7743 H       
  23 H23           -1.9045    -0.0947    -0.9968 H       
  24 H24           -1.4141    -1.6136    -0.2090 H       
  25 H25            3.9066    -0.2515    -2.4903 H       
  26 H26            0.3550    -1.8726    -4.2290 H       
  27 H27           -0.9137    -1.2401    -2.2168 H       
  28 H28            2.6297     0.3825    -0.4837 H       
  29 H29            0.5900    -2.5993     0.4586 H       
  30 H30            1.6636    -3.5807     2.4444 H       
  31 H31            1.9191     0.3006     4.2151 H       
  32 H32            0.8492     1.2748     2.2239 H       
  33 H33            1.7609    -3.0271    -5.2678 H       
  34 H34            1.3931    -1.4455    -5.9969 H       
  35 H35            2.8683    -2.3221    -6.4699 H       
@<TRIPOS>BOND
   1    1   11 1
   2    1   19 1
   3    1   20 1
   4    1   21 1
   5    2   11 1
   6    2   22 1
   7    2   23 1
   8    2   24 1
   9    3    4 ar
  10    3    8 ar
  11    3   25 1
  12    4    5 ar
  13    4   16 1
  14    5    6 ar
  15    5   26 1
  16    6    7 ar
  17    6   27 1
  18    7    8 ar
  19    7   11 1
  20    8   28 1
  21    9   10 ar
  22    9   12 ar
  23    9   29 1
  24   10   11 1
  25   10   15 ar
  26   12   13 ar
  27   12   30 1
  28   13   14 ar
  29   13   17 1
  30   14   15 ar
  31   14   31 1
  32   15   32 1
  33   16   18 1
  34   18   33 1
  35   18   34 1
  36   18   35 1

#	End of record

