#	Name: ASD05303048
#	Creating user name:	WinNT
#	Creation time:	15. 06. 2019 20:58

#	Modifying user name:	WinNT
#	Modification time:	15. 06. 2019 20:58

#	Program:	/corina/corina34_cracker 3.40 0067  02.08.2006

@<TRIPOS>MOLECULE
ASD05303048
  30   31    0    0    0
SMALL
NO_CHARGES


@<TRIPOS>ATOM
   1 C1            -0.0161     1.3785     0.0085 C.ar    
   2 C2             0.0170     0.0277    -0.2828 C.ar    
   3 C3             1.2216    -0.6506    -0.2967 C.ar    
   4 C4             2.4003     0.0246    -0.0184 C.ar    
   5 C5             2.3663     1.3863     0.2747 C.ar    
   6 C6             1.1555     2.0585     0.2871 C.ar    
   7 O7             3.5191     2.0534     0.5488 O.3     
   8 N8             3.6228    -0.6611    -0.0315 N.am    
   9 C9             3.6423    -2.0055     0.0604 C.2     
  10 O10            2.6082    -2.6173     0.2470 O.2     
  11 N11            4.8081    -2.6720    -0.0546 N.am    
  12 C12            4.8725    -4.1272     0.1538 C.3     
  13 C13            5.5994    -4.7551    -1.0409 C.3     
  14 O14            6.8475    -4.0860    -1.2371 O.3     
  15 C15            6.7235    -2.6990    -1.5609 C.3     
  16 C16            6.0531    -1.9668    -0.3984 C.3     
  17 H17           -0.9589     1.9053     0.0142 H       
  18 H18           -0.9005    -0.4992    -0.4998 H       
  19 H19            1.2445    -1.7061    -0.5240 H       
  20 H20            1.1262     3.1140     0.5140 H       
  21 H21            3.9483     2.4335    -0.2299 H       
  22 H22            4.4547    -0.1679    -0.1066 H       
  23 H23            5.4200    -4.3428     1.0713 H       
  24 H24            3.8633    -4.5330     0.2240 H       
  25 H25            5.7800    -5.8116    -0.8430 H       
  26 H26            4.9860    -4.6511    -1.9359 H       
  27 H27            7.7127    -2.2764    -1.7371 H       
  28 H28            6.1142    -2.5877    -2.4578 H       
  29 H29            5.8271    -0.9416    -0.6917 H       
  30 H30            6.7175    -1.9639     0.4658 H       
@<TRIPOS>BOND
   1    1    2 ar
   2    1    6 ar
   3    1   17 1
   4    2    3 ar
   5    2   18 1
   6    3    4 ar
   7    3   19 1
   8    4    5 ar
   9    4    8 1
  10    5    6 ar
  11    5    7 1
  12    6   20 1
  13    7   21 1
  14    8    9 am
  15    8   22 1
  16    9   10 2
  17    9   11 am
  18   11   12 1
  19   11   16 1
  20   12   13 1
  21   12   23 1
  22   12   24 1
  23   13   14 1
  24   13   25 1
  25   13   26 1
  26   14   15 1
  27   15   16 1
  28   15   27 1
  29   15   28 1
  30   16   29 1
  31   16   30 1

#	End of record

