#	Name: ASD02030427
#	Creating user name:	WinNT
#	Creation time:	15. 06. 2019 20:15

#	Modifying user name:	WinNT
#	Modification time:	15. 06. 2019 20:15

#	Program:	/corina/corina34_cracker 3.40 0067  02.08.2006

@<TRIPOS>MOLECULE
ASD02030427
  25   26    0    0    0
SMALL
NO_CHARGES


@<TRIPOS>ATOM
   1 C1            -0.0180     1.4730     0.0101 C.2     
   2 C2             0.0021    -0.0041     0.0020 C.ar    
   3 C3             1.2190    -0.6889    -0.0133 C.ar    
   4 C4             1.2304    -2.0681    -0.0203 C.ar    
   5 C5             0.0396    -2.7731    -0.0127 C.ar    
   6 C6            -1.1695    -2.1010     0.0020 C.ar    
   7 C7            -1.1954    -0.7216     0.0154 C.ar    
   8 O8             1.0256     2.0946     0.0035 O.2     
   9 O9            -1.1936     2.1307     0.0193 O.3     
  10 C10            2.5427    -2.8089    -0.0368 C.3     
  11 C11            2.7446    -3.7314     1.1769 C.3     
  12 C12            3.3592    -4.7493     0.2018 C.3     
  13 C13            2.5211    -4.0810    -0.9008 C.3     
  14 H14            2.1490    -0.1399    -0.0199 H       
  15 H15            0.0543    -3.8530    -0.0186 H       
  16 H16           -2.0952    -2.6573     0.0071 H       
  17 H17           -2.1399    -0.1982     0.0318 H       
  18 H18           -1.1561     3.0969     0.0244 H       
  19 H19            3.3937    -2.1580    -0.2369 H       
  20 H20            3.4543    -3.3429     1.9073 H       
  21 H21            1.8118    -4.0683     1.6293 H       
  22 H22            4.4341    -4.6299     0.0661 H       
  23 H23            3.0693    -5.7800     0.4064 H       
  24 H24            1.5273    -4.5134    -1.0164 H       
  25 H25            3.0504    -3.9746    -1.8477 H       
@<TRIPOS>BOND
   1    1    2 1
   2    1    8 2
   3    1    9 1
   4    2    3 ar
   5    2    7 ar
   6    3    4 ar
   7    3   14 1
   8    4    5 ar
   9    4   10 1
  10    5    6 ar
  11    5   15 1
  12    6    7 ar
  13    6   16 1
  14    7   17 1
  15    9   18 1
  16   10   11 1
  17   10   13 1
  18   10   19 1
  19   11   12 1
  20   11   20 1
  21   11   21 1
  22   12   13 1
  23   12   22 1
  24   12   23 1
  25   13   24 1
  26   13   25 1

#	End of record

