#	Name: ASD01881417
#	Creating user name:	WinNT
#	Creation time:	15. 06. 2019 19:42

#	Modifying user name:	WinNT
#	Modification time:	15. 06. 2019 19:42

#	Program:	/corina/corina34_cracker 3.40 0067  02.08.2006

@<TRIPOS>MOLECULE
ASD01881417
  58   59    0    0    0
SMALL
NO_CHARGES


@<TRIPOS>ATOM
   1 C1            -0.0179     1.4699     0.0101 C.2     
   2 C2             0.0021    -0.0041     0.0020 C.ar    
   3 C3             1.2224    -0.6915    -0.0133 C.ar    
   4 C4             1.2287    -2.0829    -0.0209 C.ar    
   5 C5             0.0326    -2.7805    -0.0133 C.ar    
   6 C6            -1.1741    -2.1007     0.0019 C.ar    
   7 C7            -1.1969    -0.7232     0.0154 C.ar    
   8 O8             1.0260     2.0917     0.0035 O.2     
   9 O9            -1.1939     2.1277     0.0193 O.3     
  10 O10            2.4094    -2.7575    -0.0363 O.3     
  11 C11            2.3410    -4.1849    -0.0433 C.3     
  12 O12            2.3927    -0.0040    -0.0212 O.3     
  13 C13            2.9644     0.3182     1.2482 C.3     
  14 C14            4.2702     1.0875     1.0389 C.3     
  15 C15            4.8824     1.4325     2.3980 C.3     
  16 C16            6.1882     2.2018     2.1888 C.3     
  17 O17            6.7599     2.5240     3.4582 O.3     
  18 C18            7.9297     3.2112     3.4503 C.ar    
  19 C19            8.5366     3.5548     4.6501 C.ar    
  20 C20            9.7300     4.2553     4.6445 C.ar    
  21 C21           10.3193     4.6142     3.4185 C.ar    
  22 C22            9.6920     4.2586     2.2169 C.ar    
  23 C23            8.5181     3.5631     2.2384 C.ar    
  24 C24            7.8965     3.1658     5.9578 C.3     
  25 O25           10.3276     4.5943     5.8137 O.3     
  26 C26           11.5822     5.3562     3.3980 C.2     
  27 O27           12.1226     5.6629     4.4402 O.2     
  28 C28           12.2102     5.7387     2.0826 C.3     
  29 C29           13.5116     6.5006     2.3412 C.3     
  30 C30           14.1492     6.8889     1.0057 C.3     
  31 H31            0.0407    -3.8605    -0.0196 H       
  32 H32           -2.1020    -2.6533     0.0077 H       
  33 H33           -2.1410    -0.1989     0.0321 H       
  34 H34           -1.1564     3.0940     0.0244 H       
  35 H35            1.8192    -4.5280     0.8501 H       
  36 H36            1.8015    -4.5184    -0.9298 H       
  37 H37            3.3500    -4.5970    -0.0555 H       
  38 H38            2.2665     0.9343     1.8151 H       
  39 H39            3.1681    -0.6003     1.7986 H       
  40 H40            4.9681     0.4714     0.4720 H       
  41 H41            4.0666     2.0060     0.4885 H       
  42 H42            4.1845     2.0486     2.9650 H       
  43 H43            5.0860     0.5139     2.9485 H       
  44 H44            6.8861     1.5856     1.6218 H       
  45 H45            5.9846     3.1203     1.6384 H       
  46 H46           10.1401     4.5316     1.2729 H       
  47 H47            8.0405     3.2874     1.3098 H       
  48 H48            8.2621     2.1856     6.2639 H       
  49 H49            8.1504     3.9026     6.7199 H       
  50 H50            6.8141     3.1279     5.8354 H       
  51 H51           10.9480     3.9307     6.1451 H       
  52 H52           12.4245     4.8384     1.5069 H       
  53 H53           11.5230     6.3731     1.5227 H       
  54 H54           13.2973     7.4009     2.9169 H       
  55 H55           14.1989     5.8663     2.9010 H       
  56 H56           14.3635     5.9885     0.4299 H       
  57 H57           13.4620     7.5232     0.4458 H       
  58 H58           15.0764     7.4316     1.1898 H       
@<TRIPOS>BOND
   1    1    2 1
   2    1    8 2
   3    1    9 1
   4    2    3 ar
   5    2    7 ar
   6    3    4 ar
   7    3   12 1
   8    4    5 ar
   9    4   10 1
  10    5    6 ar
  11    5   31 1
  12    6    7 ar
  13    6   32 1
  14    7   33 1
  15    9   34 1
  16   10   11 1
  17   11   35 1
  18   11   36 1
  19   11   37 1
  20   12   13 1
  21   13   14 1
  22   13   38 1
  23   13   39 1
  24   14   15 1
  25   14   40 1
  26   14   41 1
  27   15   16 1
  28   15   42 1
  29   15   43 1
  30   16   17 1
  31   16   44 1
  32   16   45 1
  33   17   18 1
  34   18   19 ar
  35   18   23 ar
  36   19   20 ar
  37   19   24 1
  38   20   21 ar
  39   20   25 1
  40   21   22 ar
  41   21   26 1
  42   22   23 ar
  43   22   46 1
  44   23   47 1
  45   24   48 1
  46   24   49 1
  47   24   50 1
  48   25   51 1
  49   26   27 2
  50   26   28 1
  51   28   29 1
  52   28   52 1
  53   28   53 1
  54   29   30 1
  55   29   54 1
  56   29   55 1
  57   30   56 1
  58   30   57 1
  59   30   58 1

#	End of record

