#	Name: ASD03731561
#	Creating user name:	WinNT
#	Creation time:	15. 06. 2019 20:45

#	Modifying user name:	WinNT
#	Modification time:	15. 06. 2019 20:45

#	Program:	/corina/corina34_cracker 3.40 0067  02.08.2006

@<TRIPOS>MOLECULE
ASD03731561
  40   41    0    0    0
SMALL
NO_CHARGES


@<TRIPOS>ATOM
   1 C1             0.1221     1.4715    -0.0150 C.2     
   2 C2             0.1052    -0.0047    -0.0176 C.ar    
   3 C3             1.2937    -0.7149    -0.1768 C.ar    
   4 C4             1.2721    -2.1073    -0.1780 C.ar    
   5 C5             0.0526    -2.7855    -0.0187 C.ar    
   6 C6            -1.1256    -2.0675     0.1392 C.ar    
   7 C7            -1.1032    -0.6906     0.1456 C.ar    
   8 O8             1.1729     2.0677    -0.1518 O.2     
   9 N9            -1.0280     2.1584     0.1334 N.am    
  10 S10           -1.0090     3.8143     0.1362 S.o2    
  11 O11           -2.3675     4.1800     0.3361 O.2     
  12 O12           -0.0115     4.1517     1.0904 O.2     
  13 C13           -0.4682     4.2636    -1.5360 C.3     
  14 O14            0.0255    -4.1404    -0.0195 O.3     
  15 C15            0.2484    -4.7838     1.1569 C.ar    
  16 C16            0.1673    -6.1677     1.2178 C.ar    
  17 C17            0.3939    -6.8201     2.4139 C.ar    
  18 C18            0.7020    -6.0937     3.5520 C.ar    
  19 C19            0.7832    -4.7130     3.4928 C.ar    
  20 C20            0.5626    -4.0580     2.2965 C.ar    
  21 F21            0.9230    -6.7332     4.7214 F       
  22 C22           -0.1684    -6.9584    -0.0204 C.3     
  23 C23            1.1085    -7.2152    -0.8233 C.3     
  24 C24            2.4886    -2.8449    -0.3414 C.1     
  25 N25            3.4536    -3.4300    -0.4711 N.1     
  26 H26            2.2281    -0.1873    -0.2992 H       
  27 H27           -2.0624    -2.5909     0.2612 H       
  28 H28           -2.0223    -0.1382     0.2733 H       
  29 H29           -1.8668     1.6828     0.2385 H       
  30 H30           -1.1740     3.8660    -2.2652 H       
  31 H31           -0.4266     5.3492    -1.6250 H       
  32 H32            0.5211     3.8457    -1.7225 H       
  33 H33            0.3305    -7.8971     2.4616 H       
  34 H34            1.0232    -4.1478     4.3813 H       
  35 H35            0.6304    -2.9811     2.2496 H       
  36 H36           -0.6149    -7.9105     0.2664 H       
  37 H37           -0.8743    -6.3953    -0.6308 H       
  38 H38            1.8144    -7.7783    -0.2129 H       
  39 H39            0.8657    -7.7871    -1.7189 H       
  40 H40            1.5549    -6.2631    -1.1101 H       
@<TRIPOS>BOND
   1    1    2 1
   2    1    8 2
   3    1    9 am
   4    2    3 ar
   5    2    7 ar
   6    3    4 ar
   7    3   26 1
   8    4    5 ar
   9    4   24 1
  10    5    6 ar
  11    5   14 1
  12    6    7 ar
  13    6   27 1
  14    7   28 1
  15    9   10 am
  16    9   29 1
  17   10   11 2
  18   10   12 2
  19   10   13 1
  20   13   30 1
  21   13   31 1
  22   13   32 1
  23   14   15 1
  24   15   16 ar
  25   15   20 ar
  26   16   17 ar
  27   16   22 1
  28   17   18 ar
  29   17   33 1
  30   18   19 ar
  31   18   21 1
  32   19   20 ar
  33   19   34 1
  34   20   35 1
  35   22   23 1
  36   22   36 1
  37   22   37 1
  38   23   38 1
  39   23   39 1
  40   23   40 1
  41   24   25 3

#	End of record

