#	Name: ASD05060039
#	Creating user name:	WinNT
#	Creation time:	15. 06. 2019 20:56

#	Modifying user name:	WinNT
#	Modification time:	15. 06. 2019 20:56

#	Program:	/corina/corina34_cracker 3.40 0067  02.08.2006

@<TRIPOS>MOLECULE
ASD05060039
  29   30    0    0    0
SMALL
NO_CHARGES


@<TRIPOS>ATOM
   1 C1            -0.0156     1.3010     0.0092 C.2     
   2 N2             0.0021    -0.0041     0.0020 N.2     
   3 C3             1.2738    -0.4352    -0.0124 C.2     
   4 C4             2.0891     0.6893    -0.0142 C.2     
   5 N5             1.2456     1.7717    -0.0003 N.pl3   
   6 C6             3.5602     0.7149    -0.0281 C.2     
   7 O7             4.1860    -0.3268    -0.0397 O.2     
   8 O8             4.2139     1.8940    -0.0280 O.3     
   9 C9             1.7225    -1.8444    -0.0239 C.2     
  10 N10            0.8148    -2.8406    -0.0206 N.am    
  11 O11            2.9098    -2.1040    -0.0362 O.2     
  12 C12            1.2593    -4.2365    -0.0319 C.3     
  13 C13            0.0579    -5.1463    -0.0255 C.ar    
  14 C14           -0.5038    -5.5571    -1.2200 C.ar    
  15 C15           -1.6052    -6.3918    -1.2154 C.ar    
  16 C16           -2.1461    -6.8166    -0.0137 C.ar    
  17 C17           -1.5827    -6.4045     1.1821 C.ar    
  18 C18           -0.4781    -5.5741     1.1749 C.ar    
  19 F19           -3.2231    -7.6322    -0.0079 F       
  20 H20           -0.9069     1.9109     0.0169 H       
  21 H21            1.5097     2.7050     0.0022 H       
  22 H22            5.1803     1.8602    -0.0374 H       
  23 H23           -0.1327    -2.6334    -0.0108 H       
  24 H24            1.8509    -4.4222    -0.9284 H       
  25 H25            1.8674    -4.4314     0.8515 H       
  26 H26           -0.0819    -5.2254    -2.1572 H       
  27 H27           -2.0441    -6.7123    -2.1487 H       
  28 H28           -2.0038    -6.7352     2.1200 H       
  29 H29           -0.0360    -5.2558     2.1074 H       
@<TRIPOS>BOND
   1    1    2 2
   2    1    5 1
   3    1   20 1
   4    2    3 1
   5    3    4 2
   6    3    9 1
   7    4    5 1
   8    4    6 1
   9    5   21 1
  10    6    7 2
  11    6    8 1
  12    8   22 1
  13    9   10 am
  14    9   11 2
  15   10   12 1
  16   10   23 1
  17   12   13 1
  18   12   24 1
  19   12   25 1
  20   13   14 ar
  21   13   18 ar
  22   14   15 ar
  23   14   26 1
  24   15   16 ar
  25   15   27 1
  26   16   17 ar
  27   16   19 1
  28   17   18 ar
  29   17   28 1
  30   18   29 1

#	End of record

