#	Name: ASD01882777
#	Creating user name:	WinNT
#	Creation time:	15. 06. 2019 19:45

#	Modifying user name:	WinNT
#	Modification time:	15. 06. 2019 19:45

#	Program:	/corina/corina34_cracker 3.40 0067  02.08.2006

@<TRIPOS>MOLECULE
ASD01882777
  29   30    0    0    0
SMALL
NO_CHARGES


@<TRIPOS>ATOM
   1 O1            -0.0173     1.4248     0.0099 O.3     
   2 C2             0.0021    -0.0041     0.0020 C.3     
   3 C3             1.2831     0.8325    -0.0057 C.3     
   4 C4            -0.3680    -0.7292     1.2974 C.3     
   5 O5            -1.5561    -1.4961     1.0913 O.3     
   6 C6            -2.0240    -2.2066     2.1521 C.ar    
   7 C7            -3.1729    -2.9725     2.0207 C.ar    
   8 C8            -3.6487    -3.6963     3.1015 C.ar    
   9 C9            -2.9726    -3.6533     4.3173 C.ar    
  10 C10           -1.8259    -2.8873     4.4443 C.ar    
  11 C11           -1.3493    -2.1695     3.3628 C.ar    
  12 O12           -3.4384    -4.3631     5.3807 O.3     
  13 C13           -2.6943    -4.2724     6.5973 C.3     
  14 O14           -4.7752    -4.4475     2.9751 O.3     
  15 C15           -5.4173    -4.4441     1.6985 C.3     
  16 H16           -0.2792    -0.5108    -0.9211 H       
  17 H17            1.8523     0.8812    -0.9340 H       
  18 H18            1.8699     0.8713     0.9120 H       
  19 H19            0.4467    -1.3924     1.5881 H       
  20 H20           -0.5402     0.0024     2.0869 H       
  21 H21           -3.6963    -3.0043     1.0766 H       
  22 H22           -1.3011    -2.8538     5.3876 H       
  23 H23           -0.4523    -1.5762     3.4623 H       
  24 H24           -2.6646    -3.2343     6.9285 H       
  25 H25           -3.1725    -4.8842     7.3622 H       
  26 H26           -1.6782    -4.6293     6.4293 H       
  27 H27           -4.7274    -4.8215     0.9437 H       
  28 H28           -6.3007    -5.0817     1.7345 H       
  29 H29           -5.7137    -3.4267     1.4436 H       
@<TRIPOS>BOND
   1    1    2 1
   2    1    3 1
   3    2    3 1
   4    2    4 1
   5    2   16 1
   6    3   17 1
   7    3   18 1
   8    4    5 1
   9    4   19 1
  10    4   20 1
  11    5    6 1
  12    6    7 ar
  13    6   11 ar
  14    7    8 ar
  15    7   21 1
  16    8    9 ar
  17    8   14 1
  18    9   10 ar
  19    9   12 1
  20   10   11 ar
  21   10   22 1
  22   11   23 1
  23   12   13 1
  24   13   24 1
  25   13   25 1
  26   13   26 1
  27   14   15 1
  28   15   27 1
  29   15   28 1
  30   15   29 1

#	End of record

