#	Name: ASD07300478
#	Creating user name:	WinNT
#	Creation time:	15. 06. 2019 21:09

#	Modifying user name:	WinNT
#	Modification time:	15. 06. 2019 21:09

#	Program:	/corina/corina34_cracker 3.40 0067  02.08.2006

@<TRIPOS>MOLECULE
ASD07300478
  26   28    0    0    0
SMALL
NO_CHARGES


@<TRIPOS>ATOM
   1 C1            -0.0170     1.4053     0.0098 C.ar    
   2 C2             0.0021    -0.0041     0.0020 C.ar    
   3 C3             1.2319    -0.6716    -0.0129 C.ar    
   4 C4             2.3768     0.0820    -0.0194 C.ar    
   5 C5             2.2872     1.4667    -0.0111 C.ar    
   6 N6             1.1244     2.0817     0.0025 N.ar    
   7 N7            -2.1373     0.6312     0.0348 N.2     
   8 N8            -1.3365     1.7776     0.0299 N.pl3   
   9 C9            -1.3912    -0.4365     0.0130 C.2     
  10 C10           -1.8074     3.0964     0.0433 C.ar    
  11 C11           -2.9778     3.4243    -0.6283 C.ar    
  12 C12           -3.4398     4.7257    -0.6127 C.ar    
  13 C13           -2.7382     5.7019     0.0707 C.ar    
  14 C14           -1.5721     5.3788     0.7401 C.ar    
  15 C15           -1.1079     4.0780     0.7331 C.ar    
  16 N16           -3.2362     7.0957     0.0854 N.pl3   
  17 O17           -4.2629     7.3819    -0.5041 O.2     
  18 O18           -2.6192     7.9566     0.6869 O.2     
  19 H19            1.2777    -1.7506    -0.0188 H       
  20 H20            3.3436    -0.3993    -0.0305 H       
  21 H21            3.1938     2.0535    -0.0160 H       
  22 H22           -1.7411    -1.4583     0.0108 H       
  23 H23           -3.5261     2.6624    -1.1625 H       
  24 H24           -4.3499     4.9813    -1.1351 H       
  25 H25           -1.0260     6.1435     1.2723 H       
  26 H26           -0.1997     3.8253     1.2601 H       
@<TRIPOS>BOND
   1    1    2 ar
   2    1    6 ar
   3    1    8 1
   4    2    3 ar
   5    2    9 1
   6    3    4 ar
   7    3   19 1
   8    4    5 ar
   9    4   20 1
  10    5    6 ar
  11    5   21 1
  12    7    8 1
  13    7    9 2
  14    8   10 1
  15    9   22 1
  16   10   11 ar
  17   10   15 ar
  18   11   12 ar
  19   11   23 1
  20   12   13 ar
  21   12   24 1
  22   13   14 ar
  23   13   16 1
  24   14   15 ar
  25   14   25 1
  26   15   26 1
  27   16   17 2
  28   16   18 2

#	End of record

