#	Name: ASD00241004
#	Creating user name:	WinNT
#	Creation time:	15. 06. 2019 18:33

#	Modifying user name:	WinNT
#	Modification time:	15. 06. 2019 18:33

#	Program:	/corina/corina34_cracker 3.40 0067  02.08.2006

@<TRIPOS>MOLECULE
ASD00241004
  54   56    0    0    0
SMALL
NO_CHARGES


@<TRIPOS>ATOM
   1 C1            -0.6737     0.5587     0.2147 C.3     
   2 C2            -0.8865    -0.9672     0.3320 C.3     
   3 C3            -1.5777    -1.1456     1.7019 C.3     
   4 O4            -2.2120     0.1252     1.9635 O.3     
   5 C5            -1.2617     1.1216     1.5277 C.3     
   6 C6            -3.8104    -2.1305     1.0295 C.ar    
   7 C7            -4.4153    -3.3850     1.2140 C.ar    
   8 N8            -4.4740    -1.1835     0.3740 N.ar    
   9 C9            -5.6812    -1.4139    -0.0971 C.ar    
  10 N10           -6.2905    -2.5762     0.0519 N.ar    
  11 C11           -5.7054    -3.5828     0.6923 C.ar    
  12 N12           -3.5381    -4.1538     1.9028 N.2     
  13 C13           -2.4595    -3.4677     2.1469 C.2     
  14 N14           -2.5806    -2.2113     1.6322 N.pl3   
  15 C15           -1.9682     2.4535     1.2669 C.3     
  16 N16           -2.5896     2.9297     2.5099 N.3     
  17 C17           -1.5818     3.4848     3.4232 C.3     
  18 C18           -2.2084     3.7346     4.7708 C.2     
  19 C19           -1.6554     3.2428     5.8517 C.2     
  20 O20            0.7189     0.8641     0.1183 O.3     
  21 O21            0.3683    -1.6507     0.3116 O.3     
  22 N22           -6.3516    -4.7972     0.8431 N.pl3   
  23 C23           -1.2564    -3.9843     2.8930 C.3     
  24 C24           -0.2760    -4.6175     1.9036 C.3     
  25 C25           -0.3049     2.5789     5.7717 C.3     
  26 N26            0.5981     3.1853     6.7591 N.3     
  27 C27           -3.6435     3.9135     2.2282 C.3     
  28 H28           -1.2111     0.9541    -0.6472 H       
  29 H29           -1.5309    -1.3258    -0.4706 H       
  30 H30           -0.8401    -1.3675     2.4732 H       
  31 H31           -0.4756     1.2475     2.2722 H       
  32 H32           -6.1929    -0.6227    -0.6249 H       
  33 H33           -1.2419     3.1881     0.9192 H       
  34 H34           -2.7367     2.3143     0.5066 H       
  35 H35           -0.7596     2.7772     3.5304 H       
  36 H36           -1.2029     4.4235     3.0190 H       
  37 H37           -3.1135     4.3192     4.8454 H       
  38 H38           -2.1673     3.3130     6.8000 H       
  39 H39            1.1523     0.4832    -0.6578 H       
  40 H40            0.8726    -1.5229    -0.5036 H       
  41 H41           -7.2422    -4.9211     0.4792 H       
  42 H42           -5.9139    -5.5244     1.3126 H       
  43 H43           -0.7678    -3.1588     3.4106 H       
  44 H44           -1.5731    -4.7324     3.6197 H       
  45 H45           -0.7645    -5.4430     1.3859 H       
  46 H46            0.0408    -3.8694     1.1769 H       
  47 H47            0.5942    -4.9911     2.4432 H       
  48 H48           -0.4103     1.5144     5.9813 H       
  49 H49            0.1074     2.7132     4.7717 H       
  50 H50            0.2073     3.1310     7.6878 H       
  51 H51            1.5110     2.7570     6.7253 H       
  52 H52           -4.3594     3.4878     1.5250 H       
  53 H53           -4.1552     4.1732     3.1550 H       
  54 H54           -3.1981     4.8094     1.7957 H       
@<TRIPOS>BOND
   1    1    2 1
   2    1   20 1
   3    1    5 1
   4    1   28 1
   5    2    3 1
   6    2   21 1
   7    2   29 1
   8    3    4 1
   9    3   14 1
  10    3   30 1
  11    4    5 1
  12    5   15 1
  13    5   31 1
  14    6    7 ar
  15    6    8 ar
  16    6   14 1
  17    7   12 1
  18    7   11 ar
  19    8    9 ar
  20    9   10 ar
  21    9   32 1
  22   10   11 ar
  23   11   22 1
  24   12   13 2
  25   13   14 1
  26   13   23 1
  27   15   16 1
  28   15   33 1
  29   15   34 1
  30   16   17 1
  31   16   27 1
  32   17   18 1
  33   17   35 1
  34   17   36 1
  35   18   19 2
  36   18   37 1
  37   19   25 1
  38   19   38 1
  39   20   39 1
  40   21   40 1
  41   22   41 1
  42   22   42 1
  43   23   24 1
  44   23   43 1
  45   23   44 1
  46   24   45 1
  47   24   46 1
  48   24   47 1
  49   25   26 1
  50   25   48 1
  51   25   49 1
  52   26   50 1
  53   26   51 1
  54   27   52 1
  55   27   53 1
  56   27   54 1

#	End of record

