#	Name: ASD05300012
#	Creating user name:	WinNT
#	Creation time:	15. 06. 2019 20:58

#	Modifying user name:	WinNT
#	Modification time:	15. 06. 2019 20:58

#	Program:	/corina/corina34_cracker 3.40 0067  02.08.2006

@<TRIPOS>MOLECULE
ASD05300012
  48   50    0    0    0
SMALL
NO_CHARGES


@<TRIPOS>ATOM
   1 C1             3.7950    -4.0197    -0.7207 C.3     
   2 C2             2.7772    -3.3443    -1.6420 C.3     
   3 C3             1.6641    -2.7176    -0.7997 C.3     
   4 N4             0.7526    -1.9725    -1.6716 N.am    
   5 C5            -0.2559    -2.6122    -2.2963 C.2     
   6 O6            -0.3361    -3.8209    -2.2373 O.2     
   7 N7            -1.1752    -1.9087    -2.9864 N.am    
   8 C8            -1.9235    -2.5170    -3.9333 C.2     
   9 C9            -2.7795    -3.5574    -3.5668 C.2     
  10 C10           -3.5886    -4.1687    -4.5227 C.2     
  11 C11           -3.5498    -3.7324    -5.8467 C.2     
  12 C12           -2.6893    -2.7004    -6.2143 C.2     
  13 C13           -1.8590    -2.1026    -5.2618 C.2     
  14 C14           -0.8974    -1.0821    -5.6871 C.2     
  15 C15           -0.5686    -0.0228    -5.0215 C.2     
  16 C16           -1.1043     0.3640    -3.7117 C.2     
  17 C17           -1.3553    -0.5948    -2.7300 C.2     
  18 C18           -1.7967    -0.1969    -1.4649 C.2     
  19 C19           -2.0298     1.1504    -1.1964 C.2     
  20 C20           -1.8226     2.1041    -2.1924 C.2     
  21 C21           -1.3629     1.7118    -3.4478 C.2     
  22 C22            0.9374    -0.5321    -1.8645 C.3     
  23 C23            1.6674    -0.2840    -3.1860 C.3     
  24 C24            1.8623     1.2203    -3.3864 C.3     
  25 H25            4.2871    -3.2648    -0.1075 H       
  26 H26            3.2835    -4.7345    -0.0761 H       
  27 H27            4.5397    -4.5410    -1.3223 H       
  28 H28            3.2732    -2.5678    -2.2242 H       
  29 H29            2.3489    -4.0861    -2.3160 H       
  30 H30            1.1123    -3.5036    -0.2841 H       
  31 H31            2.1011    -2.0396    -0.0666 H       
  32 H32           -2.8145    -3.8895    -2.5398 H       
  33 H33           -4.2439    -4.9789    -4.2389 H       
  34 H34           -4.1862    -4.1946    -6.5867 H       
  35 H35           -2.6634    -2.3611    -7.2393 H       
  36 H36           -0.4187    -1.2280    -6.6442 H       
  37 H37            0.1637     0.6333    -5.4684 H       
  38 H38           -1.9578    -0.9355    -0.6937 H       
  39 H39           -2.3709     1.4556    -0.2182 H       
  40 H40           -2.0193     3.1470    -1.9919 H       
  41 H41           -1.2029     2.4516    -4.2182 H       
  42 H42           -0.0355    -0.0411    -1.8891 H       
  43 H43            1.5276    -0.1281    -1.0420 H       
  44 H44            2.6395    -0.7763    -3.1621 H       
  45 H45            1.0764    -0.6865    -4.0087 H       
  46 H46            0.8987     1.7244    -3.3133 H       
  47 H47            2.5330     1.6053    -2.6182 H       
  48 H48            2.2941     1.4028    -4.3704 H       
@<TRIPOS>BOND
   1    1    2 1
   2    1   25 1
   3    1   26 1
   4    1   27 1
   5    2    3 1
   6    2   28 1
   7    2   29 1
   8    3    4 1
   9    3   30 1
  10    3   31 1
  11    4    5 am
  12    4   22 1
  13    5    6 2
  14    5    7 am
  15    7    8 1
  16    7   17 1
  17    8    9 2
  18    8   13 1
  19    9   10 1
  20    9   32 1
  21   10   11 2
  22   10   33 1
  23   11   12 1
  24   11   34 1
  25   12   13 2
  26   12   35 1
  27   13   14 1
  28   14   15 2
  29   14   36 1
  30   15   16 1
  31   15   37 1
  32   16   17 2
  33   16   21 1
  34   17   18 1
  35   18   19 2
  36   18   38 1
  37   19   20 1
  38   19   39 1
  39   20   21 2
  40   20   40 1
  41   21   41 1
  42   22   23 1
  43   22   42 1
  44   22   43 1
  45   23   24 1
  46   23   44 1
  47   23   45 1
  48   24   46 1
  49   24   47 1
  50   24   48 1

#	End of record

