#	Name: ASD05490081
#	Creating user name:	WinNT
#	Creation time:	15. 06. 2019 21:01

#	Modifying user name:	WinNT
#	Modification time:	15. 06. 2019 21:01

#	Program:	/corina/corina34_cracker 3.40 0067  02.08.2006

@<TRIPOS>MOLECULE
ASD05490081
  64   68    0    0    0
SMALL
NO_CHARGES


@<TRIPOS>ATOM
   1 N1            -0.0178     1.4608     0.0101 N.am    
   2 O2             4.5863     2.8161    -0.0262 O.3     
   3 N3             2.8511     4.3368    -0.0011 N.ar    
   4 C4             1.5540     4.6376     0.0125 C.ar    
   5 C5             3.2565     3.0770    -0.0125 C.ar    
   6 N6             2.4054     2.0644    -0.0098 N.ar    
   7 C7             1.0946     2.2826     0.0039 C.ar    
   8 C8             0.6266     3.5971     0.0154 C.ar    
   9 N9             1.1342     5.9598     0.0241 N.pl3   
  10 C10           -1.1223     2.2312     0.0189 C.2     
  11 N11           -0.7663     3.5310     0.0284 N.am    
  12 C12            5.4681     3.9405    -0.0273 C.3     
  13 C13            6.9178     3.4518    -0.0435 C.3     
  14 O14            7.1762     2.7676    -1.2712 O.3     
  15 C15            8.5098     2.2679    -1.3886 C.3     
  16 O16           -2.2665     1.8171     0.0260 O.2     
  17 C17            0.0021    -0.0041     0.0020 C.3     
  18 C18            0.0225    -0.5140     1.4200 C.ar    
  19 C19           -1.1674    -0.7635     2.0797 C.ar    
  20 C20           -1.1546    -1.2305     3.3784 C.ar    
  21 C21            0.0599    -1.4507     4.0249 C.ar    
  22 C22            1.2555    -1.1977     3.3555 C.ar    
  23 C23            1.2310    -0.7362     2.0550 C.ar    
  24 C24            0.0799    -1.9524     5.4213 C.ar    
  25 C25            1.2932    -2.1762     6.0781 C.ar    
  26 C26           -1.1101    -2.2022     6.1007 C.ar    
  27 N27           -1.0937    -2.6472     7.3407 N.ar    
  28 C28            0.0351    -2.8725     7.9844 C.ar    
  29 C29            1.2582    -2.6441     7.3803 C.ar    
  30 C30           -0.0084    -3.3811     9.4023 C.3     
  31 N31           -0.1494    -2.2470    10.3252 N.3     
  32 C32           -0.4335    -2.7126    11.6951 C.3     
  33 C33            0.6639    -2.1326    12.6119 C.3     
  34 C34            1.1810    -0.9105    11.8082 C.3     
  35 C35            1.0820    -1.4293    10.3519 C.3     
  36 H36            1.7881     6.6762     0.0223 H       
  37 H37            0.1868     6.1678     0.0340 H       
  38 H38           -1.3727     4.2880     0.0359 H       
  39 H39            5.2799     4.5490    -0.9119 H       
  40 H40            5.2961     4.5380     0.8679 H       
  41 H41            7.5900     4.3052     0.0452 H       
  42 H42            7.0814     2.7720     0.7927 H       
  43 H43            9.2150     3.0968    -1.3278 H       
  44 H44            8.7064     1.5636    -0.5803 H       
  45 H45            8.6252     1.7622    -2.3473 H       
  46 H46           -0.8878    -0.3767    -0.5053 H       
  47 H47            0.8920    -0.3525    -0.5222 H       
  48 H48           -2.1082    -0.5921     1.5778 H       
  49 H49           -2.0842    -1.4247     3.8927 H       
  50 H50            2.1996    -1.3663     3.8521 H       
  51 H51            2.1571    -0.5401     1.5352 H       
  52 H52            2.2341    -1.9893     5.5820 H       
  53 H53           -2.0548    -2.0293     5.6067 H       
  54 H54            2.1760    -2.8327     7.9174 H       
  55 H55           -0.8576    -4.0540     9.5211 H       
  56 H56            0.9141    -3.9176     9.6243 H       
  57 H57           -1.4117    -2.3523    12.0138 H       
  58 H58           -0.4079    -3.8018    11.7293 H       
  59 H59            0.2417    -1.8160    13.5656 H       
  60 H60            1.4620    -2.8590    12.7648 H       
  61 H61            0.5375    -0.0437    11.9585 H       
  62 H62            2.2132    -0.6789    12.0708 H       
  63 H63            1.9498    -2.0419    10.1075 H       
  64 H64            0.9981    -0.5941     9.6565 H       
@<TRIPOS>BOND
   1    1   17 1
   2    1    7 1
   3    1   10 am
   4    2   12 1
   5    2    5 1
   6    3    4 ar
   7    3    5 ar
   8    4    9 1
   9    4    8 ar
  10    5    6 ar
  11    6    7 ar
  12    7    8 ar
  13    8   11 1
  14    9   36 1
  15    9   37 1
  16   10   11 am
  17   10   16 2
  18   11   38 1
  19   12   13 1
  20   12   39 1
  21   12   40 1
  22   13   14 1
  23   13   41 1
  24   13   42 1
  25   14   15 1
  26   15   43 1
  27   15   44 1
  28   15   45 1
  29   17   18 1
  30   17   46 1
  31   17   47 1
  32   18   19 ar
  33   18   23 ar
  34   19   20 ar
  35   19   48 1
  36   20   21 ar
  37   20   49 1
  38   21   22 ar
  39   21   24 1
  40   22   23 ar
  41   22   50 1
  42   23   51 1
  43   24   25 ar
  44   24   26 ar
  45   25   29 ar
  46   25   52 1
  47   26   27 ar
  48   26   53 1
  49   27   28 ar
  50   28   29 ar
  51   28   30 1
  52   29   54 1
  53   30   31 1
  54   30   55 1
  55   30   56 1
  56   31   32 1
  57   31   35 1
  58   32   33 1
  59   32   57 1
  60   32   58 1
  61   33   34 1
  62   33   59 1
  63   33   60 1
  64   34   35 1
  65   34   61 1
  66   34   62 1
  67   35   63 1
  68   35   64 1

#	End of record

