#	Name: ASD02198223
#	Creating user name:	WinNT
#	Creation time:	15. 06. 2019 20:19

#	Modifying user name:	WinNT
#	Modification time:	15. 06. 2019 20:19

#	Program:	/corina/corina34_cracker 3.40 0067  02.08.2006

@<TRIPOS>MOLECULE
ASD02198223
  46   49    0    0    0
SMALL
NO_CHARGES


@<TRIPOS>ATOM
   1 C1            -0.0166     1.3744     0.0096 C.2     
   2 C2             0.0021    -0.0041     0.0020 C.2     
   3 C3            -1.1876    -0.8011     0.0091 C.1     
   4 S4             1.5679     2.0036    -0.0022 S.3     
   5 C5             2.2765     0.3966    -0.0175 C.2     
   6 C6             1.2839    -0.5519    -0.0132 C.2     
   7 C7             3.6606     0.1212    -0.0330 C.2     
   8 C8             4.6299     1.2263    -0.0366 C.2     
   9 O9             4.0528    -1.0346    -0.0433 O.2     
  10 N10            1.5314    -1.9169    -0.0219 N.pl3   
  11 N11           -1.1600     2.1393     0.0194 N.pl3   
  12 N12           -2.1314    -1.4334     0.0147 N.1     
  13 C13           -1.0633     3.6011     0.0268 C.3     
  14 C14           -2.3388     4.2168    -0.5745 C.3     
  15 C15            5.9930     1.1040    -0.0509 C.2     
  16 C16           -2.9728     5.0853     0.5317 C.3     
  17 C17           -1.7891     5.4293     1.4696 C.3     
  18 C18           -0.9666     4.1169     1.4775 C.3     
  19 N19            6.6296     2.2451    -0.0514 N.2     
  20 C20            5.9102     3.3309    -0.0386 C.2     
  21 S21            4.2449     2.9457    -0.0309 S.3     
  22 C22            6.6972    -0.2283    -0.0641 C.3     
  23 C23            6.4573     4.7040    -0.0365 C.ar    
  24 N24            5.6349     5.7508    -0.0224 N.ar    
  25 C25            7.8387     4.9080    -0.0436 C.ar    
  26 N26            8.3214     6.1364    -0.0418 N.ar    
  27 C27            7.4995     7.1719    -0.0333 C.ar    
  28 C28            6.1282     6.9744    -0.0207 C.ar    
  29 H29            2.4444    -2.2442    -0.0317 H       
  30 H30            0.7914    -2.5441    -0.0183 H       
  31 H31           -2.0302     1.7108     0.0213 H       
  32 H32           -0.1904     3.9202    -0.5426 H       
  33 H33           -2.0849     4.8354    -1.4353 H       
  34 H34           -3.0298     3.4280    -0.8719 H       
  35 H35           -3.3989     5.9938     0.1062 H       
  36 H36           -3.7345     4.5212     1.0700 H       
  37 H37           -1.2005     6.2517     1.0630 H       
  38 H38           -2.1466     5.6672     2.4715 H       
  39 H39           -1.4044     3.3965     2.1685 H       
  40 H40            0.0713     4.3187     1.7422 H       
  41 H41            6.8566    -0.5448    -1.0949 H       
  42 H42            7.6590    -0.1359     0.4405 H       
  43 H43            6.0854    -0.9677     0.4526 H       
  44 H44            8.5106     4.0624    -0.0503 H       
  45 H45            7.8986     8.1754    -0.0314 H       
  46 H46            5.4615     7.8240    -0.0137 H       
@<TRIPOS>BOND
   1    1    2 2
   2    1    4 1
   3    1   11 1
   4    2    3 1
   5    2    6 1
   6    3   12 3
   7    4    5 1
   8    5    6 2
   9    5    7 1
  10    6   10 1
  11    7    8 1
  12    7    9 2
  13    8   15 2
  14    8   21 1
  15   10   29 1
  16   10   30 1
  17   11   13 1
  18   11   31 1
  19   13   14 1
  20   13   18 1
  21   13   32 1
  22   14   16 1
  23   14   33 1
  24   14   34 1
  25   15   19 1
  26   15   22 1
  27   16   17 1
  28   16   35 1
  29   16   36 1
  30   17   18 1
  31   17   37 1
  32   17   38 1
  33   18   39 1
  34   18   40 1
  35   19   20 2
  36   20   21 1
  37   20   23 1
  38   22   41 1
  39   22   42 1
  40   22   43 1
  41   23   24 ar
  42   23   25 ar
  43   24   28 ar
  44   25   26 ar
  45   25   44 1
  46   26   27 ar
  47   27   28 ar
  48   27   45 1
  49   28   46 1

#	End of record

