#	Name: ASD09530023
#	Creating user name:	WinNT
#	Creation time:	15. 06. 2019 21:22

#	Modifying user name:	WinNT
#	Modification time:	15. 06. 2019 21:22

#	Program:	/corina/corina34_cracker 3.40 0067  02.08.2006

@<TRIPOS>MOLECULE
ASD09530023
  53   56    0    0    0
SMALL
NO_CHARGES


@<TRIPOS>ATOM
   1 C1            -0.0168     1.3905     0.0097 C.ar    
   2 C2             0.0021    -0.0041     0.0020 C.ar    
   3 C3             1.2224    -0.6792    -0.0133 C.ar    
   4 C4             2.4028     0.0352    -0.0207 C.ar    
   5 C5             2.3776     1.4184    -0.0130 C.ar    
   6 C6             1.1703     2.0938     0.0021 C.ar    
   7 C7            -1.2688    -0.7651     0.0106 C.2     
   8 C8             3.6705     2.1926    -0.0207 C.3     
   9 C9             4.0884     2.4583    -1.4440 C.2     
  10 N10            5.2230     3.1404    -1.6970 N.am    
  11 O11            3.4038     2.0584    -2.3618 O.2     
  12 C12            5.6293     3.3987    -3.0807 C.3     
  13 C13            6.5057     4.6238    -3.1265 C.ar    
  14 N14            7.1838     4.9789    -2.0530 N.ar    
  15 C15            7.9633     6.0421    -2.0443 C.ar    
  16 C16            8.0970     6.8311    -3.1772 C.ar    
  17 C17            7.3955     6.4853    -4.3280 C.ar    
  18 C18            6.5922     5.3571    -4.2953 C.ar    
  19 O19            8.9015     7.9265    -3.1634 O.3     
  20 C20            9.5865     8.2129    -1.9424 C.3     
  21 C21            6.4068     2.1951    -3.6170 C.3     
  22 C22           -2.3422    -0.5757     0.8824 C.2     
  23 N23           -3.2904    -1.4357     0.5844 N.2     
  24 N24           -2.8772    -2.2239    -0.4950 N.pl3   
  25 C25           -1.6210    -1.8060    -0.8591 C.2     
  26 N26           -3.4889    -3.2690    -1.1970 N.2     
  27 C27           -2.8735    -3.8537    -2.1918 C.2     
  28 C28           -1.5914    -3.4541    -2.5816 C.2     
  29 C29           -0.9651    -2.4342    -1.9260 C.2     
  30 C30           10.4368     9.4726    -2.1181 C.3     
  31 F31            9.6101    10.5504    -2.4529 F       
  32 F32           11.1074     9.7531    -0.9228 F       
  33 F33           11.3705     9.2663    -3.1393 F       
  34 H34           -0.9587     1.9189     0.0170 H       
  35 H35            1.2434    -1.7590    -0.0189 H       
  36 H36            3.3484    -0.4865    -0.0322 H       
  37 H37            1.1569     3.1737     0.0081 H       
  38 H38            3.5298     3.1400     0.4995 H       
  39 H39            4.4441     1.6130     0.4829 H       
  40 H40            5.7705     3.4602    -0.9630 H       
  41 H41            4.7438     3.5622    -3.6949 H       
  42 H42            8.5031     6.3017    -1.1455 H       
  43 H43            7.4787     7.0794    -5.2261 H       
  44 H44            6.0333     5.0588    -5.1700 H       
  45 H45            8.8590     8.3736    -1.1467 H       
  46 H46           10.2306     7.3732    -1.6815 H       
  47 H47            5.7730     1.3090    -3.5839 H       
  48 H48            6.7091     2.3873    -4.6465 H       
  49 H49            7.2923     2.0315    -3.0028 H       
  50 H50           -2.3862     0.1580     1.6738 H       
  51 H51           -3.3631    -4.6582    -2.7204 H       
  52 H52           -1.0989    -3.9492    -3.4054 H       
  53 H53            0.0250    -2.1197    -2.2215 H       
@<TRIPOS>BOND
   1    1    2 ar
   2    1    6 ar
   3    1   34 1
   4    2    3 ar
   5    2    7 1
   6    3    4 ar
   7    3   35 1
   8    4    5 ar
   9    4   36 1
  10    5    6 ar
  11    5    8 1
  12    6   37 1
  13    7   22 1
  14    7   25 2
  15    8    9 1
  16    8   38 1
  17    8   39 1
  18    9   10 am
  19    9   11 2
  20   10   12 1
  21   10   40 1
  22   12   13 1
  23   12   21 1
  24   12   41 1
  25   13   14 ar
  26   13   18 ar
  27   14   15 ar
  28   15   16 ar
  29   15   42 1
  30   16   17 ar
  31   16   19 1
  32   17   18 ar
  33   17   43 1
  34   18   44 1
  35   19   20 1
  36   20   30 1
  37   20   45 1
  38   20   46 1
  39   21   47 1
  40   21   48 1
  41   21   49 1
  42   22   23 2
  43   22   50 1
  44   23   24 1
  45   24   25 1
  46   24   26 1
  47   25   29 1
  48   26   27 2
  49   27   28 1
  50   27   51 1
  51   28   29 2
  52   28   52 1
  53   29   53 1
  54   30   31 1
  55   30   32 1
  56   30   33 1

#	End of record

