#	Name: ASD09116315
#	Creating user name:	WinNT
#	Creation time:	15. 06. 2019 21:21

#	Modifying user name:	WinNT
#	Modification time:	15. 06. 2019 21:21

#	Program:	/corina/corina34_cracker 3.40 0067  02.08.2006

@<TRIPOS>MOLECULE
ASD09116315
  66   71    0    0    0
SMALL
NO_CHARGES


@<TRIPOS>ATOM
   1 N1             0.2002     1.0282     0.2238 N.2     
   2 N2             0.3143    -0.3695     0.2991 N.pl3   
   3 C3             1.4182     1.5091     0.1569 C.2     
   4 N4             2.2924     0.4963     0.1857 N.2     
   5 C5             1.6453    -0.6461     0.2714 C.2     
   6 N6             2.2165    -1.9029     0.3235 N.pl3   
   7 C7            -0.7289    -1.2896     0.3856 C.ar    
   8 N8             1.7498     2.8609     0.0689 N.pl3   
   9 C9             3.0916     3.2569     0.1156 C.ar    
  10 C10            3.5024     4.4005    -0.5568 C.ar    
  11 C11            4.0118     2.5095     0.8390 C.ar    
  12 C12            5.3354     2.9008     0.8845 C.ar    
  13 C13            5.7459     4.0400     0.2079 C.ar    
  14 N14           -0.7550    -2.3656    -0.3995 N.ar    
  15 C15           -1.7368    -3.2410    -0.3234 C.ar    
  16 N16           -2.7425    -3.0965     0.5181 N.ar    
  17 C17           -2.7928    -2.0437     1.3265 C.ar    
  18 C18           -1.7612    -1.1087     1.2957 C.ar    
  19 O19            7.0495     4.4247     0.2533 O.3     
  20 C20            8.8986     5.8793    -0.2992 C.3     
  21 C21            7.4023     5.6077    -0.4666 C.3     
  22 C22            4.8264     4.7903    -0.5102 C.ar    
  23 N23            9.6663     4.7972    -0.9299 N.3     
  24 C24           11.0992     5.1373    -0.9999 C.3     
  25 C25           11.8713     4.0153    -0.2743 C.3     
  26 C26           10.8844     2.8196    -0.3297 C.3     
  27 C27            9.5185     3.5339    -0.1762 C.3     
  28 C28           -3.9277    -1.8161     2.2491 C.ar    
  29 C29           -4.5427    -0.5627     2.2637 C.ar    
  30 C30           -4.0736     0.4990     1.3071 C.3     
  31 C31           -2.7629     1.1283     1.7718 C.3     
  32 C32           -1.7822     0.0523     2.2471 C.3     
  33 C33           -4.3809    -2.8227     3.0944 C.ar    
  34 C34           -5.4280    -2.5697     3.9593 C.ar    
  35 C35           -6.0202    -1.3201     3.9858 C.ar    
  36 C36           -5.5783    -0.3180     3.1394 C.ar    
  37 H37            3.1814    -1.9986     0.2968 H       
  38 H38            1.6527    -2.6896     0.3868 H       
  39 H39            1.0506     3.5267    -0.0247 H       
  40 H40            2.7867     4.9846    -1.1163 H       
  41 H41            3.6923     1.6226     1.3661 H       
  42 H42            6.0511     2.3199     1.4473 H       
  43 H43           -1.7177    -4.1049    -0.9712 H       
  44 H44            9.1509     6.8278    -0.7733 H       
  45 H45            9.1427     5.9273     0.7620 H       
  46 H46            7.1737     5.4715    -1.5236 H       
  47 H47            6.8339     6.4526    -0.0778 H       
  48 H48            5.1469     5.6770    -1.0370 H       
  49 H49           11.4168     5.1924    -2.0411 H       
  50 H50           11.2786     6.0913    -0.5042 H       
  51 H51           12.7943     3.7781    -0.8035 H       
  52 H52           12.0791     4.2960     0.7582 H       
  53 H53           10.9497     2.3035    -1.2876 H       
  54 H54           11.0595     2.1302     0.4962 H       
  55 H55            9.3142     3.7404     0.8744 H       
  56 H56            8.7221     2.9264    -0.6062 H       
  57 H57           -3.9258     0.0527     0.3237 H       
  58 H58           -4.8356     1.2750     1.2343 H       
  59 H59           -2.3175     1.6816     0.9449 H       
  60 H60           -2.9660     1.8148     2.5938 H       
  61 H61           -2.0844    -0.2970     3.2345 H       
  62 H62           -0.7823     0.4816     2.3104 H       
  63 H63           -3.9164    -3.7975     3.0751 H       
  64 H64           -5.7846    -3.3491     4.6164 H       
  65 H65           -6.8326    -1.1254     4.6703 H       
  66 H66           -6.0446     0.6558     3.1657 H       
@<TRIPOS>BOND
   1    1    2 1
   2    1    3 2
   3    2    7 1
   4    2    5 1
   5    3    4 1
   6    3    8 1
   7    4    5 2
   8    5    6 1
   9    6   37 1
  10    6   38 1
  11    7   14 ar
  12    7   18 ar
  13    8    9 1
  14    8   39 1
  15    9   10 ar
  16    9   11 ar
  17   10   22 ar
  18   10   40 1
  19   11   12 ar
  20   11   41 1
  21   12   13 ar
  22   12   42 1
  23   13   22 ar
  24   13   19 1
  25   14   15 ar
  26   15   16 ar
  27   15   43 1
  28   16   17 ar
  29   17   18 ar
  30   17   28 1
  31   18   32 1
  32   19   21 1
  33   20   21 1
  34   20   23 1
  35   20   44 1
  36   20   45 1
  37   21   46 1
  38   21   47 1
  39   22   48 1
  40   23   24 1
  41   23   27 1
  42   24   25 1
  43   24   49 1
  44   24   50 1
  45   25   26 1
  46   25   51 1
  47   25   52 1
  48   26   27 1
  49   26   53 1
  50   26   54 1
  51   27   55 1
  52   27   56 1
  53   28   29 ar
  54   28   33 ar
  55   29   30 1
  56   29   36 ar
  57   30   31 1
  58   30   57 1
  59   30   58 1
  60   31   32 1
  61   31   59 1
  62   31   60 1
  63   32   61 1
  64   32   62 1
  65   33   34 ar
  66   33   63 1
  67   34   35 ar
  68   34   64 1
  69   35   36 ar
  70   35   65 1
  71   36   66 1

#	End of record

