#	Name: ASD01816894
#	Creating user name:	WinNT
#	Creation time:	15. 06. 2019 19:36

#	Modifying user name:	WinNT
#	Modification time:	15. 06. 2019 19:36

#	Program:	/corina/corina34_cracker 3.40 0067  02.08.2006

@<TRIPOS>MOLECULE
ASD01816894
  52   55    0    0    0
SMALL
NO_CHARGES


@<TRIPOS>ATOM
   1 C1            -0.0233     1.3788     0.1101 C.ar    
   2 C2             0.0086    -0.0090     0.2235 C.ar    
   3 C3             1.1860    -0.6925     0.1375 C.ar    
   4 C4             2.3851     0.0113    -0.0685 C.ar    
   5 C5             2.3559     1.4259    -0.1846 C.ar    
   6 C6             1.1186     2.0949    -0.0900 C.ar    
   7 C7             3.6189    -0.6588    -0.1621 C.ar    
   8 C8             4.7452     0.0862    -0.3623 C.ar    
   9 C9             4.6487     1.4817    -0.4686 C.ar    
  10 N10            3.4877     2.1012    -0.3800 N.ar    
  11 C11            5.8799     2.2783    -0.6860 C.2     
  12 N12            5.8048     3.6199    -0.7904 N.am    
  13 O13            6.9567     1.7217    -0.7700 O.2     
  14 C14            7.0215     4.4071    -1.0052 C.3     
  15 C15            6.8092     5.8315    -0.4831 C.3     
  16 C16            3.6950    -2.1592    -0.0439 C.3     
  17 C17            5.1288    -2.6020    -0.1828 C.ar    
  18 C18            5.9488    -2.7129     0.9319 C.ar    
  19 C19            5.6563    -2.9128    -1.4237 C.ar    
  20 C20            6.9824    -3.3173    -1.5123 C.ar    
  21 N21            7.7339    -3.4054    -0.4277 N.ar    
  22 C22            7.2575    -3.1212     0.7697 C.ar    
  23 C23            8.0561     6.6676    -0.7826 C.3     
  24 O24            8.3098     6.6552    -2.1889 O.3     
  25 C25            8.5627     5.3547    -2.7247 C.3     
  26 C26            7.3361     4.4658    -2.5032 C.3     
  27 O27            6.5865     5.7946     0.9280 O.3     
  28 F28            1.1995    -2.0387     0.2502 F       
  29 F29            1.0653     3.4406    -0.1969 F       
  30 O30            7.5114    -3.6253    -2.7232 O.3     
  31 C31            8.8803    -4.0345    -2.7479 C.3     
  32 H32           -0.9693     1.8956     0.1773 H       
  33 H33           -0.9116    -0.5516     0.3822 H       
  34 H34            5.7079    -0.3974    -0.4382 H       
  35 H35            4.9452     4.0643    -0.7233 H       
  36 H36            7.8536     3.9445    -0.4744 H       
  37 H37            5.9453     6.2756    -0.9776 H       
  38 H38            3.3124    -2.4669     0.9293 H       
  39 H39            3.0956    -2.6165    -0.8310 H       
  40 H40            5.5671    -2.4818     1.9154 H       
  41 H41            5.0453    -2.8422    -2.3114 H       
  42 H42            7.9009    -3.2045     1.6331 H       
  43 H43            7.8940     7.6934    -0.4516 H       
  44 H44            8.9117     6.2461    -0.2551 H       
  45 H45            8.7655     5.4347    -3.7926 H       
  46 H46            9.4250     4.9161    -2.2226 H       
  47 H47            7.5431     3.4610    -2.8715 H       
  48 H48            6.4829     4.8824    -3.0385 H       
  49 H49            6.4441     6.6641     1.3265 H       
  50 H50            9.1765    -4.2504    -3.7744 H       
  51 H51            9.5057    -3.2355    -2.3497 H       
  52 H52            9.0030    -4.9298    -2.1384 H       
@<TRIPOS>BOND
   1    1    2 ar
   2    1    6 ar
   3    1   32 1
   4    2    3 ar
   5    2   33 1
   6    3    4 ar
   7    3   28 1
   8    4    5 ar
   9    4    7 ar
  10    5    6 ar
  11    5   10 ar
  12    6   29 1
  13    7    8 ar
  14    7   16 1
  15    8    9 ar
  16    8   34 1
  17    9   10 ar
  18    9   11 1
  19   11   12 am
  20   11   13 2
  21   12   14 1
  22   12   35 1
  23   14   15 1
  24   14   26 1
  25   14   36 1
  26   15   23 1
  27   15   27 1
  28   15   37 1
  29   16   17 1
  30   16   38 1
  31   16   39 1
  32   17   18 ar
  33   17   19 ar
  34   18   22 ar
  35   18   40 1
  36   19   20 ar
  37   19   41 1
  38   20   21 ar
  39   20   30 1
  40   21   22 ar
  41   22   42 1
  42   23   24 1
  43   23   43 1
  44   23   44 1
  45   24   25 1
  46   25   26 1
  47   25   45 1
  48   25   46 1
  49   26   47 1
  50   26   48 1
  51   27   49 1
  52   30   31 1
  53   31   50 1
  54   31   51 1
  55   31   52 1

#	End of record

