#	Name: ASD07300885
#	Creating user name:	WinNT
#	Creation time:	15. 06. 2019 21:10

#	Modifying user name:	WinNT
#	Modification time:	15. 06. 2019 21:10

#	Program:	/corina/corina34_cracker 3.40 0067  02.08.2006

@<TRIPOS>MOLECULE
ASD07300885
  52   56    0    0    0
SMALL
NO_CHARGES


@<TRIPOS>ATOM
   1 N1             0.5900     1.0215     0.9233 N.am    
   2 C2             0.2342    -0.2848     0.8327 C.2     
   3 N3             1.0892    -1.2389     0.6076 N.2     
   4 C4             2.3991    -0.9937     0.4469 C.2     
   5 C5             2.8621     0.3293     0.5234 C.2     
   6 C6             1.8850     1.3878     0.7777 C.2     
   7 N7             3.4863    -1.7719     0.2075 N.pl3   
   8 N8             4.6133    -0.9435     0.1359 N.2     
   9 C9             4.2544     0.2970     0.3210 C.2     
  10 O10            2.2240     2.5555     0.8549 O.2     
  11 C11            3.4811    -3.2286     0.0516 C.3     
  12 C12            4.1545    -3.6024    -1.2704 C.3     
  13 C13            4.1491    -5.1237    -1.4333 C.3     
  14 C14            4.9135    -5.7636    -0.2727 C.3     
  15 C15            4.2401    -5.3898     1.0493 C.3     
  16 C16            4.2455    -3.8685     1.2122 C.3     
  17 C17           -1.2188    -0.6470     1.0013 C.3     
  18 C18           -1.4822    -2.1620     0.9827 C.3     
  19 C19           -2.7403    -1.8536     0.1540 C.3     
  20 C20           -2.0284    -0.5698    -0.3039 C.3     
  21 F21            4.9085    -7.1547    -0.4217 F       
  22 F22            6.2333    -5.2995    -0.2713 F       
  23 C23           -1.1925    -0.7527    -1.5444 C.2     
  24 N24           -1.2578    -0.0183    -2.6183 N.2     
  25 C25           -0.3640    -0.4794    -3.5110 C.2     
  26 C26            0.2627    -1.5296    -2.9552 C.2     
  27 O27           -0.2558    -1.6938    -1.7224 O.3     
  28 C28           -0.1115     0.0806    -4.8871 C.3     
  29 C29            1.3456    -2.3640    -3.5894 C.3     
  30 H30           -0.0870     1.6961     1.0890 H       
  31 H31            4.9132     1.1528     0.3192 H       
  32 H32            2.4528    -3.5902     0.0505 H       
  33 H33            3.6100    -3.1465    -2.0973 H       
  34 H34            5.1828    -3.2408    -1.2693 H       
  35 H35            3.1208    -5.4853    -1.4344 H       
  36 H36            4.6289    -5.3900    -2.3751 H       
  37 H37            3.2118    -5.7514     1.0482 H       
  38 H38            4.7847    -5.8457     1.8761 H       
  39 H39            5.2738    -3.5069     1.2132 H       
  40 H40            3.7657    -3.6023     2.1540 H       
  41 H41           -1.6889    -0.1324     1.8393 H       
  42 H42           -0.7283    -2.7296     0.4372 H       
  43 H43           -1.6985    -2.5796     1.9660 H       
  44 H44           -2.9177    -2.5658    -0.6520 H       
  45 H45           -3.6276    -1.6687     0.7595 H       
  46 H46           -2.6857     0.2980    -0.3593 H       
  47 H47            0.7125     0.7928    -4.8440 H       
  48 H48            0.1449    -0.7309    -5.5681 H       
  49 H49           -1.0093     0.5848    -5.2445 H       
  50 H50            2.3154    -1.9020    -3.4047 H       
  51 H51            1.3321    -3.3652    -3.1585 H       
  52 H52            1.1724    -2.4285    -4.6636 H       
@<TRIPOS>BOND
   1    1    2 1
   2    1    6 am
   3    1   30 1
   4    2    3 2
   5    2   17 1
   6    3    4 1
   7    4    5 2
   8    4    7 1
   9    5    6 1
  10    5    9 1
  11    6   10 2
  12    7    8 1
  13    7   11 1
  14    8    9 2
  15    9   31 1
  16   11   12 1
  17   11   16 1
  18   11   32 1
  19   12   13 1
  20   12   33 1
  21   12   34 1
  22   13   14 1
  23   13   35 1
  24   13   36 1
  25   14   15 1
  26   14   21 1
  27   14   22 1
  28   15   16 1
  29   15   37 1
  30   15   38 1
  31   16   39 1
  32   16   40 1
  33   17   18 1
  34   17   20 1
  35   17   41 1
  36   18   19 1
  37   18   42 1
  38   18   43 1
  39   19   20 1
  40   19   44 1
  41   19   45 1
  42   20   23 1
  43   20   46 1
  44   23   24 2
  45   23   27 1
  46   24   25 1
  47   25   26 2
  48   25   28 1
  49   26   27 1
  50   26   29 1
  51   28   47 1
  52   28   48 1
  53   28   49 1
  54   29   50 1
  55   29   51 1
  56   29   52 1

#	End of record

