#	Name: ASD01883318
#	Creating user name:	WinNT
#	Creation time:	15. 06. 2019 19:46

#	Modifying user name:	WinNT
#	Modification time:	15. 06. 2019 19:46

#	Program:	/corina/corina34_cracker 3.40 0067  02.08.2006

@<TRIPOS>MOLECULE
ASD01883318
  36   37    0    0    0
SMALL
NO_CHARGES


@<TRIPOS>ATOM
   1 N1            -0.0312     1.3684     0.0002 N.am    
   2 C2            -0.0046     0.0245    -0.0721 C.2     
   3 C3            -1.2172    -0.7066    -0.0632 C.2     
   4 C4            -2.4276    -0.0035     0.0216 C.2     
   5 C5            -2.3915     1.3988     0.0945 C.2     
   6 C6            -1.2043     2.0462     0.0878 C.2     
   7 O7             1.0617    -0.5623    -0.1455 O.2     
   8 C8            -1.2078    -2.1365    -0.1398 C.1     
   9 N9            -1.2002    -3.2708    -0.2006 N.1     
  10 O10           -3.6078    -0.6633     0.0325 O.3     
  11 C11           -4.3540    -0.6173     1.1674 C.ar    
  12 C12            1.2301     2.1135    -0.0099 C.3     
  13 C13            1.6127     2.4492    -1.4527 C.3     
  14 C14            2.9300     3.2274    -1.4632 C.3     
  15 C15            3.3126     3.5630    -2.9061 C.3     
  16 C16           -5.6215    -1.1814     1.1888 C.ar    
  17 C17           -6.3783    -1.1334     2.3434 C.ar    
  18 C18           -5.8734    -0.5231     3.4777 C.ar    
  19 C19           -4.6099     0.0400     3.4586 C.ar    
  20 C20           -3.8472    -0.0111     2.3080 C.ar    
  21 Br21          -6.9123    -0.4579     5.0565 Br      
  22 H22           -3.3120     1.9598     0.1603 H       
  23 H23           -1.1894     3.1246     0.1442 H       
  24 H24            1.1117     3.0360     0.5586 H       
  25 H25            2.0145     1.5063     0.4421 H       
  26 H26            1.7311     1.5267    -2.0212 H       
  27 H27            0.8284     3.0564    -1.9047 H       
  28 H28            2.8116     4.1498    -0.8948 H       
  29 H29            3.7143     2.6202    -1.0113 H       
  30 H30            4.2510     4.1174    -2.9136 H       
  31 H31            3.4310     2.6406    -3.4746 H       
  32 H32            2.5282     4.1702    -3.3581 H       
  33 H33           -6.0162    -1.6573     0.3033 H       
  34 H34           -7.3649    -1.5724     2.3605 H       
  35 H35           -4.2177     0.5160     4.3452 H       
  36 H36           -2.8609     0.4286     2.2934 H       
@<TRIPOS>BOND
   1    1    2 am
   2    1   12 1
   3    1    6 1
   4    2    3 1
   5    2    7 2
   6    3    4 2
   7    3    8 1
   8    4    5 1
   9    4   10 1
  10    5    6 2
  11    5   22 1
  12    6   23 1
  13    8    9 3
  14   10   11 1
  15   11   16 ar
  16   11   20 ar
  17   12   13 1
  18   12   24 1
  19   12   25 1
  20   13   14 1
  21   13   26 1
  22   13   27 1
  23   14   15 1
  24   14   28 1
  25   14   29 1
  26   15   30 1
  27   15   31 1
  28   15   32 1
  29   16   17 ar
  30   16   33 1
  31   17   18 ar
  32   17   34 1
  33   18   19 ar
  34   18   21 1
  35   19   20 ar
  36   19   35 1
  37   20   36 1

#	End of record

