#	Name: ASD02508399
#	Creating user name:	WinNT
#	Creation time:	15. 06. 2019 20:24

#	Modifying user name:	WinNT
#	Modification time:	15. 06. 2019 20:24

#	Program:	/corina/corina34_cracker 3.40 0067  02.08.2006

@<TRIPOS>MOLECULE
ASD02508399
  36   38    0    0    0
SMALL
NO_CHARGES


@<TRIPOS>ATOM
   1 N1            -0.0168     1.3291    -0.1012 N.2     
   2 C2             0.0027     0.0038     0.1060 C.2     
   3 C3             1.2875    -0.3941     0.1641 C.2     
   4 N4             2.0587     0.7262    -0.0137 N.pl3   
   5 C5             1.2078     1.7737    -0.1748 C.2     
   6 C6             3.4562     0.7804    -0.0263 C.ar    
   7 C7             4.1159     1.7276     0.7489 C.ar    
   8 N8             4.1384    -0.0735    -0.7715 N.ar    
   9 C9             5.4568    -0.0574    -0.8122 C.ar    
  10 C10            6.1773     0.8593    -0.0721 C.ar    
  11 C11            5.5001     1.7698     0.7272 C.ar    
  12 S12            1.8670    -2.0384     0.4195 S.o2    
  13 O13            1.8503    -2.6718    -0.8525 O.2     
  14 O14            3.0366    -1.9319     1.2194 O.2     
  15 N15            0.7369    -2.8183     1.3451 N.am    
  16 C16           -0.5456    -3.0472     0.8372 C.ar    
  17 C17           -0.7060    -3.5255    -0.4565 C.ar    
  18 C18           -1.9739    -3.7514    -0.9560 C.ar    
  19 C19           -3.0843    -3.5007    -0.1681 C.ar    
  20 C20           -2.9267    -3.0236     1.1224 C.ar    
  21 C21           -1.6608    -2.8018     1.6279 C.ar    
  22 Cl22           3.2169     2.8425     1.7300 Cl      
  23 C23           -4.1373    -2.7516     1.9777 C.3     
  24 F24           -4.3235    -3.7214    -0.6590 F       
  25 H25           -0.8629    -0.6337     0.2090 H       
  26 H26            1.4968     2.8015    -0.3371 H       
  27 H27            5.9796    -0.7706    -1.4322 H       
  28 H28            7.2566     0.8648    -0.1115 H       
  29 H29            6.0400     2.4968     1.3157 H       
  30 H30            0.9645    -3.1164     2.2397 H       
  31 H31            0.1599    -3.7205    -1.0717 H       
  32 H32           -2.0991    -4.1234    -1.9622 H       
  33 H33           -1.5384    -2.4297     2.6344 H       
  34 H34           -4.3967    -3.6508     2.5366 H       
  35 H35           -3.9162    -1.9424     2.6736 H       
  36 H36           -4.9747    -2.4651     1.3415 H       
@<TRIPOS>BOND
   1    1    2 1
   2    1    5 2
   3    2    3 2
   4    2   25 1
   5    3    4 1
   6    3   12 1
   7    4    5 1
   8    4    6 1
   9    5   26 1
  10    6    7 ar
  11    6    8 ar
  12    7   22 1
  13    7   11 ar
  14    8    9 ar
  15    9   10 ar
  16    9   27 1
  17   10   11 ar
  18   10   28 1
  19   11   29 1
  20   12   13 2
  21   12   14 2
  22   12   15 am
  23   15   16 1
  24   15   30 1
  25   16   17 ar
  26   16   21 ar
  27   17   18 ar
  28   17   31 1
  29   18   19 ar
  30   18   32 1
  31   19   20 ar
  32   19   24 1
  33   20   21 ar
  34   20   23 1
  35   21   33 1
  36   23   34 1
  37   23   35 1
  38   23   36 1

#	End of record

