#	Name: ASD04910528
#	Creating user name:	WinNT
#	Creation time:	15. 06. 2019 20:56

#	Modifying user name:	WinNT
#	Modification time:	15. 06. 2019 20:56

#	Program:	/corina/corina34_cracker 3.40 0067  02.08.2006

@<TRIPOS>MOLECULE
ASD04910528
  52   55    0    0    0
SMALL
NO_CHARGES


@<TRIPOS>ATOM
   1 C1            -0.0180     1.4730     0.0101 C.2     
   2 C2             0.0021    -0.0041     0.0020 C.ar    
   3 C3             1.2188    -0.6888    -0.0133 C.ar    
   4 C4             1.2303    -2.0682    -0.0203 C.ar    
   5 C5             0.0396    -2.7731    -0.0127 C.ar    
   6 C6            -1.1697    -2.1009     0.0020 C.ar    
   7 C7            -1.1956    -0.7217     0.0154 C.ar    
   8 O8             1.0256     2.0946     0.0035 O.2     
   9 O9            -1.1936     2.1307     0.0193 O.3     
  10 C10            0.0601    -4.2800    -0.0210 C.3     
  11 C11           -0.1699    -4.8009     1.3991 C.3     
  12 C12           -0.0255    -6.3241     1.4132 C.3     
  13 C13           -0.2555    -6.8450     2.8333 C.3     
  14 N14           -0.9997    -4.7779    -0.9014 N.pl3   
  15 C15            0.2317    -6.8308    -1.2460 C.ar    
  16 C16           -0.8838    -6.0411    -1.4899 C.ar    
  17 C17           -1.8867    -6.5237    -2.3284 C.ar    
  18 C18           -1.7295    -7.7794    -2.8882 C.ar    
  19 C19           -0.5856    -8.5120    -2.5981 C.ar    
  20 N20            0.3470    -8.0228    -1.7973 N.ar    
  21 N21           -0.4176    -9.7830    -3.1596 N.pl3   
  22 N22           -1.3133   -10.4298    -4.0210 N.2     
  23 C23           -0.8112   -11.5971    -4.3331 C.2     
  24 C24            0.4200   -11.7355    -3.6829 C.2     
  25 C25            0.6454   -10.6069    -2.9711 C.2     
  26 C26            1.3364   -12.9290    -3.7651 C.3     
  27 C27            0.7848   -14.2768    -3.2958 C.3     
  28 C28            0.9936   -14.0136    -4.7884 C.3     
  29 H29            2.1488    -0.1398    -0.0199 H       
  30 H30            2.1707    -2.5992    -0.0321 H       
  31 H31           -2.0953    -2.6572     0.0071 H       
  32 H32           -2.1401    -0.1983     0.0318 H       
  33 H33           -1.1561     3.0969     0.0244 H       
  34 H34            1.0272    -4.6283    -0.3836 H       
  35 H35            0.5660    -4.3600     2.0715 H       
  36 H36           -1.1725    -4.5280     1.7284 H       
  37 H37           -0.7614    -6.7650     0.7408 H       
  38 H38            0.9771    -6.5970     1.0840 H       
  39 H39           -0.1526    -7.9301     2.8433 H       
  40 H40            0.4804    -6.4041     3.5057 H       
  41 H41           -1.2581    -6.5720     3.1625 H       
  42 H42           -1.7818    -4.2314    -1.0761 H       
  43 H43            1.0159    -6.4627    -0.6010 H       
  44 H44           -2.7659    -5.9320    -2.5361 H       
  45 H45           -2.4871    -8.1849    -3.5424 H       
  46 H46           -1.2690   -12.3290    -4.9821 H       
  47 H47            1.5124   -10.3999    -2.3615 H       
  48 H48            2.3913   -12.7254    -3.5813 H       
  49 H49            1.4770   -14.9599    -2.8035 H       
  50 H50           -0.2408   -14.3001    -2.9275 H       
  51 H51            0.1053   -13.8639    -5.4021 H       
  52 H52            1.8231   -14.5237    -5.2782 H       
@<TRIPOS>BOND
   1    1    2 1
   2    1    8 2
   3    1    9 1
   4    2    3 ar
   5    2    7 ar
   6    3    4 ar
   7    3   29 1
   8    4    5 ar
   9    4   30 1
  10    5    6 ar
  11    5   10 1
  12    6    7 ar
  13    6   31 1
  14    7   32 1
  15    9   33 1
  16   10   11 1
  17   10   14 1
  18   10   34 1
  19   11   12 1
  20   11   35 1
  21   11   36 1
  22   12   13 1
  23   12   37 1
  24   12   38 1
  25   13   39 1
  26   13   40 1
  27   13   41 1
  28   14   16 1
  29   14   42 1
  30   15   16 ar
  31   15   20 ar
  32   15   43 1
  33   16   17 ar
  34   17   18 ar
  35   17   44 1
  36   18   19 ar
  37   18   45 1
  38   19   20 ar
  39   19   21 1
  40   21   22 1
  41   21   25 1
  42   22   23 2
  43   23   24 1
  44   23   46 1
  45   24   25 2
  46   24   26 1
  47   25   47 1
  48   26   27 1
  49   26   28 1
  50   26   48 1
  51   27   28 1
  52   27   49 1
  53   27   50 1
  54   28   51 1
  55   28   52 1

#	End of record

