#	Name: ASD01917891
#	Creating user name:	WinNT
#	Creation time:	15. 06. 2019 20:10

#	Modifying user name:	WinNT
#	Modification time:	15. 06. 2019 20:10

#	Program:	/corina/corina34_cracker 3.40 0067  02.08.2006

@<TRIPOS>MOLECULE
ASD01917891
  45   49    0    0    0
SMALL
NO_CHARGES


@<TRIPOS>ATOM
   1 C1            -0.0070     1.3080    -0.0310 C.2     
   2 C2            -0.0070    -0.0382    -0.0232 C.2     
   3 C3            -1.2827    -0.8659     0.0037 C.3     
   4 C4            -2.4386     0.0102     0.4923 C.3     
   5 N5            -2.4055     1.2943    -0.2240 N.am    
   6 C6            -1.2450     2.1747    -0.0024 C.3     
   7 C7            -3.4039     1.6536    -1.0549 C.2     
   8 O8            -4.2984     0.8688    -1.3057 O.2     
   9 S9             1.6579     1.8710    -0.0718 S.3     
  10 C10            2.2122     0.2542    -0.0703 C.2     
  11 N11            1.2135    -0.5564    -0.0430 N.2     
  12 C12            3.6605    -0.1616    -0.0975 C.3     
  13 O13            4.0900    -0.3034    -1.4530 O.3     
  14 C14            5.3811    -0.6765    -1.6553 C.ar    
  15 C15            5.8650    -0.8330    -2.9460 C.ar    
  16 C16            7.1777    -1.2123    -3.1490 C.ar    
  17 C17            8.0091    -1.4359    -2.0671 C.ar    
  18 C18            7.5291    -1.2810    -0.7797 C.ar    
  19 C19            6.2189    -0.8959    -0.5715 C.ar    
  20 C20           -3.4117     2.9976    -1.6597 C.2     
  21 N21           -2.5747     3.9807    -1.4053 N.2     
  22 N22           -2.8429     5.0298    -2.0952 N.pl3   
  23 C23           -3.9295     4.8258    -2.9036 C.ar    
  24 C24           -4.3517     3.5022    -2.6705 C.ar    
  25 C25           -4.6270     5.6013    -3.8268 C.ar    
  26 C26           -5.7099     5.0334    -4.4701 C.ar    
  27 C27           -6.0711     3.7236    -4.1848 C.ar    
  28 N28           -5.3937     3.0014    -3.3182 N.ar    
  29 H29           -1.5012    -1.2312    -0.9998 H       
  30 H30           -1.1546    -1.7108     0.6803 H       
  31 H31           -3.3854    -0.4926     0.2954 H       
  32 H32           -2.3344     0.1873     1.5628 H       
  33 H33           -1.3326     2.6661     0.9666 H       
  34 H34           -1.1906     2.9221    -0.7940 H       
  35 H35            4.2658     0.5976     0.3979 H       
  36 H36            3.7751    -1.1132     0.4215 H       
  37 H37            5.2158    -0.6588    -3.7914 H       
  38 H38            7.5548    -1.3347    -4.1536 H       
  39 H39            9.0351    -1.7324    -2.2279 H       
  40 H40            8.1803    -1.4569     0.0637 H       
  41 H41            5.8444    -0.7750     0.4343 H       
  42 H42           -2.3417     5.8590    -2.0494 H       
  43 H43           -4.3296     6.6187    -4.0339 H       
  44 H44           -6.2735     5.6063    -5.1916 H       
  45 H45           -6.9188     3.2859    -4.6909 H       
@<TRIPOS>BOND
   1    1    2 2
   2    1    9 1
   3    1    6 1
   4    2    3 1
   5    2   11 1
   6    3    4 1
   7    3   29 1
   8    3   30 1
   9    4    5 1
  10    4   31 1
  11    4   32 1
  12    5    6 1
  13    5    7 am
  14    6   33 1
  15    6   34 1
  16    7    8 2
  17    7   20 1
  18    9   10 1
  19   10   11 2
  20   10   12 1
  21   12   13 1
  22   12   35 1
  23   12   36 1
  24   13   14 1
  25   14   15 ar
  26   14   19 ar
  27   15   16 ar
  28   15   37 1
  29   16   17 ar
  30   16   38 1
  31   17   18 ar
  32   17   39 1
  33   18   19 ar
  34   18   40 1
  35   19   41 1
  36   20   21 2
  37   20   24 1
  38   21   22 1
  39   22   23 1
  40   22   42 1
  41   23   25 ar
  42   23   24 ar
  43   24   28 ar
  44   25   26 ar
  45   25   43 1
  46   26   27 ar
  47   26   44 1
  48   27   28 ar
  49   27   45 1

#	End of record

