#	Name: ASD08150554
#	Creating user name:	WinNT
#	Creation time:	15. 06. 2019 21:16

#	Modifying user name:	WinNT
#	Modification time:	15. 06. 2019 21:16

#	Program:	/corina/corina34_cracker 3.40 0067  02.08.2006

@<TRIPOS>MOLECULE
ASD08150554
  61   66    0    0    0
SMALL
NO_CHARGES


@<TRIPOS>ATOM
   1 N1            -0.2073     0.7201     2.2044 N.am    
   2 C2            -0.3726    -0.6050     2.0266 C.2     
   3 C3             0.7328    -1.4795     2.0340 C.2     
   4 C4             1.9867    -0.9942     2.2212 C.2     
   5 C5             2.1642     0.3994     2.4081 C.ar    
   6 C6             3.4429     0.9547     2.6062 C.ar    
   7 N7             3.6038     2.2407     2.7784 N.ar    
   8 C8             2.5729     3.0994     2.7768 C.ar    
   9 C9             1.2505     2.6290     2.5844 C.ar    
  10 C10            1.0423     1.2425     2.3957 C.ar    
  11 C11            0.1830     3.5321     2.5854 C.ar    
  12 C12            0.4314     4.8818     2.7752 C.ar    
  13 C13            1.7427     5.3399     2.9649 C.ar    
  14 C14            2.7913     4.4739     2.9661 C.ar    
  15 O15           -1.4936    -1.0539     1.8575 O.2     
  16 C16           -0.6951     5.8466     2.7771 C.ar    
  17 C17           -1.3217     1.5692     2.1876 C.ar    
  18 C18           -1.8750     1.9649     0.9764 C.ar    
  19 C19           -2.9730     2.8008     0.9596 C.ar    
  20 C20           -3.5249     3.2466     2.1542 C.ar    
  21 C21           -2.9716     2.8509     3.3652 C.ar    
  22 C22           -1.8765     2.0104     3.3817 C.ar    
  23 N23           -4.6369     4.0938     2.1374 N.3     
  24 C24           -5.8263     3.4123     2.6670 C.3     
  25 C25           -4.8870     4.6076     0.7835 C.3     
  26 C26           -6.0598     5.5902     0.8223 C.3     
  27 N27           -7.2492     4.9087     1.3519 N.3     
  28 C28           -6.9991     4.3949     2.7058 C.3     
  29 C29           -0.6863     6.9288     3.6558 C.ar    
  30 C30           -1.7350     7.8244     3.6549 C.ar    
  31 C31           -2.7989     7.6489     2.7804 C.ar    
  32 C32           -2.8107     6.5719     1.9043 C.ar    
  33 C33           -1.7620     5.6763     1.8962 C.ar    
  34 O34           -3.8308     8.5327     2.7821 O.3     
  35 C35           -3.5701     3.3342     4.6610 C.3     
  36 F36           -2.6679     3.1052     5.7055 F       
  37 F37           -3.8383     4.7042     4.5685 F       
  38 F38           -4.7597     2.6421     4.9121 F       
  39 H39            0.5817    -2.5392     1.8906 H       
  40 H40            2.8366    -1.6604     2.2279 H       
  41 H41            4.3066     0.3063     2.6166 H       
  42 H42           -0.8275     3.1802     2.4389 H       
  43 H43            1.9227     6.3947     3.1114 H       
  44 H44            3.7951     4.8441     3.1140 H       
  45 H45           -1.4458     1.6187     0.0479 H       
  46 H46           -3.4029     3.1088     0.0180 H       
  47 H47           -1.4489     1.6991     4.3234 H       
  48 H48           -6.0791     2.5695     2.0237 H       
  49 H49           -5.6203     3.0519     3.6749 H       
  50 H50           -3.9963     5.1187     0.4182 H       
  51 H51           -5.1292     3.7784     0.1188 H       
  52 H52           -5.8070     6.4330     1.4656 H       
  53 H53           -6.2658     5.9506    -0.1856 H       
  54 H54           -8.0517     5.5201     1.3398 H       
  55 H55           -7.8898     3.8838     3.0711 H       
  56 H56           -6.7569     5.2241     3.3705 H       
  57 H57            0.1407     7.0654     4.3369 H       
  58 H58           -1.7288     8.6629     4.3355 H       
  59 H59           -3.6398     6.4378     1.2254 H       
  60 H60           -1.7716     4.8389     1.2143 H       
  61 H61           -3.7120     9.2773     2.1767 H       
@<TRIPOS>BOND
   1    1    2 am
   2    1   10 1
   3    1   17 1
   4    2    3 1
   5    2   15 2
   6    3    4 2
   7    3   39 1
   8    4    5 1
   9    4   40 1
  10    5    6 ar
  11    5   10 ar
  12    6    7 ar
  13    6   41 1
  14    7    8 ar
  15    8    9 ar
  16    8   14 ar
  17    9   10 ar
  18    9   11 ar
  19   11   12 ar
  20   11   42 1
  21   12   13 ar
  22   12   16 1
  23   13   14 ar
  24   13   43 1
  25   14   44 1
  26   16   29 ar
  27   16   33 ar
  28   17   18 ar
  29   17   22 ar
  30   18   19 ar
  31   18   45 1
  32   19   20 ar
  33   19   46 1
  34   20   21 ar
  35   20   23 1
  36   21   22 ar
  37   21   35 1
  38   22   47 1
  39   23   24 1
  40   23   25 1
  41   24   28 1
  42   24   48 1
  43   24   49 1
  44   25   26 1
  45   25   50 1
  46   25   51 1
  47   26   27 1
  48   26   52 1
  49   26   53 1
  50   27   28 1
  51   27   54 1
  52   28   55 1
  53   28   56 1
  54   29   30 ar
  55   29   57 1
  56   30   31 ar
  57   30   58 1
  58   31   32 ar
  59   31   34 1
  60   32   33 ar
  61   32   59 1
  62   33   60 1
  63   34   61 1
  64   35   36 1
  65   35   37 1
  66   35   38 1

#	End of record

