#	Name: ASD04590420
#	Creating user name:	WinNT
#	Creation time:	15. 06. 2019 20:50

#	Modifying user name:	WinNT
#	Modification time:	15. 06. 2019 20:50

#	Program:	/corina/corina34_cracker 3.40 0067  02.08.2006

@<TRIPOS>MOLECULE
ASD04590420
  71   76    0    0    0
SMALL
NO_CHARGES


@<TRIPOS>ATOM
   1 C1             1.1226    -0.5029     0.6632 C.ar    
   2 C2             0.0013    -0.0030    -0.0116 C.ar    
   3 C3             1.2830     1.9084    -0.7178 C.ar    
   4 C4             2.3997     1.3908    -0.0336 C.ar    
   5 C5             2.3016     0.1851     0.6507 C.ar    
   6 N6             1.6675     3.0795    -1.2840 N.2     
   7 C7             2.9253     3.3127    -0.9984 C.2     
   8 N8             3.4220     2.2960    -0.2266 N.pl3   
   9 C9             3.6923     4.4947    -1.4426 C.2     
  10 C10            3.1995     5.5545    -2.2386 C.2     
  11 C11            4.2109     6.4378    -2.4230 C.2     
  12 N12            5.3041     5.9613    -1.7714 N.pl3   
  13 N13            4.9553     4.7497    -1.1617 N.2     
  14 N14            1.8959     5.6705    -2.7476 N.am    
  15 C15            1.5575     6.7388    -3.4965 C.2     
  16 O16            2.3811     7.6021    -3.7315 O.2     
  17 C17            0.1880     6.8607    -4.0313 C.ar    
  18 C18            0.0801     1.2024    -0.7027 C.ar    
  19 C19           -1.4138     6.4443    -5.7781 C.ar    
  20 C20           -2.3865     7.0899    -5.0365 C.ar    
  21 C21           -2.0813     7.6267    -3.7989 C.ar    
  22 C22           -0.8008     7.5171    -3.2903 C.ar    
  23 C23           -0.1281     6.3256    -5.2848 C.ar    
  24 F24            0.8207     5.6951    -6.0110 F       
  25 F25           -0.5048     8.0418    -2.0811 F       
  26 C26           -1.2679    -0.7576     0.0101 C.2     
  27 N27           -2.4397    -0.1021     0.1266 N.am    
  28 O28           -1.2558    -1.9702    -0.0771 O.2     
  29 C29           -3.7195    -0.8201     0.0276 C.3     
  30 C30           -2.4726     1.3494     0.3623 C.3     
  31 C31           -3.3838     1.6272     1.5626 C.3     
  32 N32           -4.6946     1.0054     1.3324 N.3     
  33 C33           -4.5791    -0.4525     1.2418 C.3     
  34 C34           -5.6513     1.3915     2.3782 C.3     
  35 C35           -7.0328     0.8284     2.0387 C.3     
  36 C36           -5.1888     0.8308     3.7246 C.3     
  37 C37           -6.1852     1.2329     4.8138 C.3     
  38 C38           -7.5667     0.6698     4.4744 C.3     
  39 C39           -8.0292     1.2304     3.1280 C.3     
  40 C40           -7.4893    -0.8561     4.3920 C.3     
  41 H41            1.0525    -1.4370     1.2008 H       
  42 H42            3.1603    -0.2085     1.1742 H       
  43 H43            4.3253     2.2257     0.1198 H       
  44 H44            4.1575     7.3570    -2.9874 H       
  45 H45            6.1742     6.3883    -1.7321 H       
  46 H46            1.2389     4.9819    -2.5602 H       
  47 H47           -0.7837     1.5881    -1.2237 H       
  48 H48           -1.6607     6.0276    -6.7434 H       
  49 H49           -3.3890     7.1791    -5.4279 H       
  50 H50           -2.8468     8.1295    -3.2265 H       
  51 H51           -4.2340    -0.5269    -0.8875 H       
  52 H52           -3.5368    -1.8946     0.0201 H       
  53 H53           -1.4658     1.7085     0.5759 H       
  54 H54           -2.8651     1.8548    -0.5201 H       
  55 H55           -2.9359     1.2086     2.4638 H       
  56 H56           -3.5078     2.7033     1.6837 H       
  57 H57           -5.5709    -0.8895     1.1257 H       
  58 H58           -4.1155    -0.8378     2.1499 H       
  59 H59           -5.7064     2.4785     2.4369 H       
  60 H60           -7.3623     1.2278     1.0796 H       
  61 H61           -6.9777    -0.2587     1.9800 H       
  62 H62           -5.1337    -0.2562     3.6659 H       
  63 H63           -4.2046     1.2320     3.9665 H       
  64 H64           -5.8557     0.8334     5.7730 H       
  65 H65           -6.2403     2.3199     4.8726 H       
  66 H66           -8.2765     0.9562     5.2504 H       
  67 H67           -8.0843     2.3174     3.1867 H       
  68 H68           -9.0134     0.8292     2.8861 H       
  69 H69           -7.1599    -1.2555     5.3511 H       
  70 H70           -8.4735    -1.2572     4.1501 H       
  71 H71           -6.7795    -1.1425     3.6159 H       
@<TRIPOS>BOND
   1    1    2 ar
   2    1    5 ar
   3    1   41 1
   4    2   18 ar
   5    2   26 1
   6    3    4 ar
   7    3    6 1
   8    3   18 ar
   9    4    5 ar
  10    4    8 1
  11    5   42 1
  12    6    7 2
  13    7    8 1
  14    7    9 1
  15    8   43 1
  16    9   10 1
  17    9   13 2
  18   10   11 2
  19   10   14 1
  20   11   12 1
  21   11   44 1
  22   12   13 1
  23   12   45 1
  24   14   15 am
  25   14   46 1
  26   15   16 2
  27   15   17 1
  28   17   23 ar
  29   17   22 ar
  30   18   47 1
  31   19   20 ar
  32   19   23 ar
  33   19   48 1
  34   20   21 ar
  35   20   49 1
  36   21   22 ar
  37   21   50 1
  38   22   25 1
  39   23   24 1
  40   26   27 am
  41   26   28 2
  42   27   29 1
  43   27   30 1
  44   29   33 1
  45   29   51 1
  46   29   52 1
  47   30   31 1
  48   30   53 1
  49   30   54 1
  50   31   32 1
  51   31   55 1
  52   31   56 1
  53   32   33 1
  54   32   34 1
  55   33   57 1
  56   33   58 1
  57   34   35 1
  58   34   36 1
  59   34   59 1
  60   35   39 1
  61   35   60 1
  62   35   61 1
  63   36   37 1
  64   36   62 1
  65   36   63 1
  66   37   38 1
  67   37   64 1
  68   37   65 1
  69   38   39 1
  70   38   40 1
  71   38   66 1
  72   39   67 1
  73   39   68 1
  74   40   69 1
  75   40   70 1
  76   40   71 1

#	End of record

