#	Name: ASD01881422
#	Creating user name:	WinNT
#	Creation time:	15. 06. 2019 19:42

#	Modifying user name:	WinNT
#	Modification time:	15. 06. 2019 19:42

#	Program:	/corina/corina34_cracker 3.40 0067  02.08.2006

@<TRIPOS>MOLECULE
ASD01881422
  46   50    0    0    0
SMALL
NO_CHARGES


@<TRIPOS>ATOM
   1 C1            -0.0187     1.5258     0.0104 C.3     
   2 C2             1.1274    10.0924     4.2822 C.ar    
   3 C3             1.3154     9.0037     3.4571 C.ar    
   4 C4            -0.0081    10.1748     5.0786 C.ar    
   5 C5            -0.9595     9.1583     5.0458 C.ar    
   6 C6            -0.7756     8.0674     4.2219 C.ar    
   7 C7             0.3647     7.9838     3.4215 C.ar    
   8 C8             0.5649     6.8138     2.5353 C.2     
   9 C9             0.5747     6.9720     1.1620 C.2     
  10 C10            0.7540     5.5230     3.0868 C.2     
  11 C11            0.9361     4.4613     2.2797 C.2     
  12 N12            0.9420     4.6075     0.9223 N.pl3   
  13 C13            0.7672     5.8433     0.3475 C.2     
  14 C14            1.0994     3.7357    -0.1122 C.2     
  15 N15            1.0161     4.4224    -1.2223 N.2     
  16 N16            0.8208     5.6676    -0.9640 N.2     
  17 C17            1.3287     2.2506     0.0015 C.3     
  18 F18           -2.0626     9.2405     5.8214 F       
  19 N19           -0.1954    11.2785     5.9137 N.pl3   
  20 C20            0.8049    12.3482     5.9494 C.3     
  21 C21            0.0021    -0.0041     0.0020 C.3     
  22 C22           -0.3944     0.7486     1.2737 C.3     
  23 C23            0.3355    13.7404     6.3763 C.3     
  24 C24            1.1990    12.9013     7.3204 C.3     
  25 C25            0.3812     8.3344     0.5476 C.3     
  26 F26            1.6294     8.9089     0.2847 F       
  27 F27           -0.3356     8.2096    -0.6473 F       
  28 F28           -0.3297     9.1494     1.4350 F       
  29 H29           -0.8227     2.0212    -0.5339 H       
  30 H30            1.8659    10.8799     4.3128 H       
  31 H31            2.1983     8.9410     2.8382 H       
  32 H32           -1.5130     7.2787     4.1964 H       
  33 H33            0.7520     5.3902     4.1586 H       
  34 H34            1.0800     3.4818     2.7112 H       
  35 H35            1.8633     2.0353     0.9266 H       
  36 H36            1.9198     1.9082    -0.8479 H       
  37 H37           -0.9879    11.3367     6.4700 H       
  38 H38            1.5820    12.2908     5.1872 H       
  39 H39           -0.7885    -0.5151    -0.5475 H       
  40 H40            0.9756    -0.4941    -0.0099 H       
  41 H41            0.3183     0.7538     2.0984 H       
  42 H42           -1.4458     0.7328     1.5608 H       
  43 H43            0.8040    14.5990     5.8952 H       
  44 H44           -0.7176    13.8604     6.6305 H       
  45 H45            0.7139    12.4694     8.1958 H       
  46 H46            2.2356    13.2079     7.4604 H       
@<TRIPOS>BOND
   1    1   21 1
   2    1   17 1
   3    1   22 1
   4    1   29 1
   5    2    3 ar
   6    2    4 ar
   7    2   30 1
   8    3    7 ar
   9    3   31 1
  10    4    5 ar
  11    4   19 1
  12    5    6 ar
  13    5   18 1
  14    6    7 ar
  15    6   32 1
  16    7    8 1
  17    8    9 2
  18    8   10 1
  19    9   25 1
  20    9   13 1
  21   10   11 2
  22   10   33 1
  23   11   12 1
  24   11   34 1
  25   12   13 1
  26   12   14 1
  27   13   16 2
  28   14   15 2
  29   14   17 1
  30   15   16 1
  31   17   35 1
  32   17   36 1
  33   19   20 1
  34   19   37 1
  35   20   23 1
  36   20   24 1
  37   20   38 1
  38   21   22 1
  39   21   39 1
  40   21   40 1
  41   22   41 1
  42   22   42 1
  43   23   24 1
  44   23   43 1
  45   23   44 1
  46   24   45 1
  47   24   46 1
  48   25   26 1
  49   25   27 1
  50   25   28 1

#	End of record

