#	Name: ASD01028706
#	Creating user name:	WinNT
#	Creation time:	15. 06. 2019 18:58

#	Modifying user name:	WinNT
#	Modification time:	15. 06. 2019 18:58

#	Program:	/corina/corina34_cracker 3.40 0067  02.08.2006

@<TRIPOS>MOLECULE
ASD01028706
  44   48    0    0    0
SMALL
NO_CHARGES


@<TRIPOS>ATOM
   1 C1            -0.0170     1.4019     0.0097 C.ar    
   2 C2             0.0021    -0.0041     0.0020 C.ar    
   3 C3             1.2265    -0.6751    -0.0128 C.ar    
   4 C4             2.3908     0.0898    -0.0194 C.ar    
   5 C5             2.2895     1.4832    -0.0110 C.ar    
   6 N6             1.1200     2.0837     0.0026 N.ar    
   7 O7            -1.3125     1.7754     0.0187 O.3     
   8 N8            -2.1342     0.6258     0.0168 N.2     
   9 C9            -1.3960    -0.4412     0.0125 C.2     
  10 C10            3.7216    -0.5671    -0.0347 C.ar    
  11 C11            3.8145    -1.9569    -0.0484 C.ar    
  12 C12           -1.8862    -1.8663     0.0094 C.3     
  13 C13           -2.7327    -2.1036    -1.2147 C.ar    
  14 C14           -3.8846    -1.3452    -1.4114 C.ar    
  15 C15           -4.6716    -1.5343    -2.5057 C.ar    
  16 C16           -4.3217    -2.5087    -3.4564 C.ar    
  17 C17           -3.1493    -3.2786    -3.2544 C.ar    
  18 C18           -2.3585    -3.0528    -2.1165 C.ar    
  19 N19           -5.0757    -2.7170    -4.5406 N.ar    
  20 C20           -4.7542    -3.6246    -5.4300 C.ar    
  21 C21           -3.6153    -4.4153    -5.2920 C.ar    
  22 C22           -2.8006    -4.2539    -4.2078 C.ar    
  23 C23            4.8814     0.2046    -0.0412 C.ar    
  24 C24            6.1191    -0.4114    -0.0559 C.ar    
  25 C25            6.2069    -1.7936    -0.0642 C.ar    
  26 C26            5.0563    -2.5646    -0.0631 C.ar    
  27 F27            7.2445     0.3360    -0.0627 F       
  28 F28            5.1476    -3.9125    -0.0707 F       
  29 C29           -2.7227    -2.1207     1.2650 C.3     
  30 H30            1.2696    -1.7542    -0.0187 H       
  31 H31            3.1901     2.0791    -0.0161 H       
  32 H32            2.9178    -2.5589    -0.0472 H       
  33 H33           -1.0327    -2.5441    -0.0021 H       
  34 H34           -4.1577    -0.5953    -0.6838 H       
  35 H35           -5.5617    -0.9382    -2.6428 H       
  36 H36           -1.4631    -3.6342    -1.9533 H       
  37 H37           -5.3891    -3.7633    -6.2926 H       
  38 H38           -3.3767    -5.1550    -6.0419 H       
  39 H39           -1.9140    -4.8582    -4.0848 H       
  40 H40            4.8138     1.2824    -0.0352 H       
  41 H41            7.1753    -2.2716    -0.0757 H       
  42 H42           -3.5762    -1.4429     1.2765 H       
  43 H43           -3.0772    -3.1514     1.2627 H       
  44 H44           -2.1104    -1.9490     2.1503 H       
@<TRIPOS>BOND
   1    1    2 ar
   2    1    6 ar
   3    1    7 1
   4    2    3 ar
   5    2    9 1
   6    3    4 ar
   7    3   30 1
   8    4    5 ar
   9    4   10 1
  10    5    6 ar
  11    5   31 1
  12    7    8 1
  13    8    9 2
  14    9   12 1
  15   10   23 ar
  16   10   11 ar
  17   11   26 ar
  18   11   32 1
  19   12   13 1
  20   12   29 1
  21   12   33 1
  22   13   14 ar
  23   13   18 ar
  24   14   15 ar
  25   14   34 1
  26   15   16 ar
  27   15   35 1
  28   16   17 ar
  29   16   19 ar
  30   17   18 ar
  31   17   22 ar
  32   18   36 1
  33   19   20 ar
  34   20   21 ar
  35   20   37 1
  36   21   22 ar
  37   21   38 1
  38   22   39 1
  39   23   24 ar
  40   23   40 1
  41   24   25 ar
  42   24   27 1
  43   25   26 ar
  44   25   41 1
  45   26   28 1
  46   29   42 1
  47   29   43 1
  48   29   44 1

#	End of record

