#	Name: ASD01911455
#	Creating user name:	WinNT
#	Creation time:	15. 06. 2019 19:57

#	Modifying user name:	WinNT
#	Modification time:	15. 06. 2019 19:57

#	Program:	/corina/corina34_cracker 3.40 0067  02.08.2006

@<TRIPOS>MOLECULE
ASD01911455
  65   68    0    0    0
SMALL
NO_CHARGES


@<TRIPOS>ATOM
   1 C1             0.1854     1.5023    -0.2588 C.3     
   2 C2            -0.0307    -0.0181    -0.0916 C.3     
   3 N3             1.1109    -0.4911     0.7001 N.am    
   4 C4             1.7205     1.6203    -0.1150 C.3     
   5 C5             1.1528    -1.7150     1.3668 C.ar    
   6 C6             1.5417    -2.8600     0.6806 C.ar    
   7 C7             1.5795    -4.0680     1.3540 C.ar    
   8 C8             1.2253    -4.0892     2.6968 C.ar    
   9 C9             0.8488    -2.9129     3.3153 C.ar    
  10 N10            0.8273    -1.7749     2.6482 N.ar    
  11 I11            1.2610    -5.8865     3.7727 I       
  12 C12           -0.2727     1.9718    -1.6411 C.3     
  13 C13            2.1111     0.4069     0.6997 C.2     
  14 O14            3.1720     0.2653     1.2699 O.2     
  15 C15           -0.5296     2.2818     0.8466 C.3     
  16 O16           -1.2533    -0.2703     0.6038 O.3     
  17 O17            2.3473     1.5838    -1.3987 O.3     
  18 Si18           3.3362     2.8476    -1.6902 Si      
  19 C19            3.8908     2.8059    -3.4735 C.ar    
  20 C20            2.4221     4.4427    -1.3595 C.ar    
  21 C21            4.8244     2.7419    -0.5745 C.3     
  22 C22            5.3664     1.3111    -0.5813 C.3     
  23 C23            5.9070     3.6997    -1.0761 C.3     
  24 C24            4.4222     3.1281     0.8503 C.3     
  25 C25            3.7687     3.9348    -4.2619 C.ar    
  26 C26            4.4284     1.6478    -4.0032 C.ar    
  27 C27            4.8388     1.6169    -5.3229 C.ar    
  28 C28            4.7111     2.7440    -6.1130 C.ar    
  29 C29            4.1790     3.9039    -5.5816 C.ar    
  30 C30            1.7758     5.0958    -2.3923 C.ar    
  31 C31            1.0994     6.2763    -2.1476 C.ar    
  32 C32            1.0689     6.8034    -0.8701 C.ar    
  33 C33            1.7145     6.1498     0.1629 C.ar    
  34 C34            2.3872     4.9671    -0.0810 C.ar    
  35 H35           -0.0424    -0.5068    -1.0659 H       
  36 H36            1.9848     2.5361     0.4137 H       
  37 H37            1.8104    -2.8072    -0.3641 H       
  38 H38            1.8773    -4.9738     0.8470 H       
  39 H39            0.5721    -2.9243     4.3592 H       
  40 H40           -1.3390     1.7769    -1.7560 H       
  41 H41           -0.0858     3.0409    -1.7421 H       
  42 H42            0.2802     1.4320    -2.4098 H       
  43 H43           -0.1564     1.9590     1.8185 H       
  44 H44           -0.3401     3.3478     0.7204 H       
  45 H45           -1.6017     2.0940     0.7885 H       
  46 H46           -1.4859    -1.2070     0.6634 H       
  47 H47            5.5775     1.0074    -1.6066 H       
  48 H48            6.2831     1.2670     0.0067 H       
  49 H49            4.6247     0.6396    -0.1489 H       
  50 H50            5.5209     4.7190    -1.0713 H       
  51 H51            6.7777     3.6378    -0.4234 H       
  52 H52            6.1936     3.4245    -2.0912 H       
  53 H53            3.4441     2.7049     1.0790 H       
  54 H54            5.1592     2.7406     1.5536 H       
  55 H55            4.3766     4.2140     0.9332 H       
  56 H56            3.3524     4.8408    -3.8469 H       
  57 H57            4.5282     0.7672    -3.3860 H       
  58 H58            5.2595     0.7123    -5.7366 H       
  59 H59            5.0320     2.7199    -7.1440 H       
  60 H60            4.0792     4.7845    -6.1989 H       
  61 H61            1.7996     4.6840    -3.3904 H       
  62 H62            0.5950     6.7869    -2.9546 H       
  63 H63            0.5410     7.7260    -0.6790 H       
  64 H64            1.6910     6.5618     1.1609 H       
  65 H65            2.8916     4.4564     0.7260 H       
@<TRIPOS>BOND
   1    1    2 1
   2    1    4 1
   3    1   12 1
   4    1   15 1
   5    2    3 1
   6    2   16 1
   7    2   35 1
   8    3    5 1
   9    3   13 am
  10    4   13 1
  11    4   17 1
  12    4   36 1
  13    5    6 ar
  14    5   10 ar
  15    6    7 ar
  16    6   37 1
  17    7    8 ar
  18    7   38 1
  19    8    9 ar
  20    8   11 1
  21    9   10 ar
  22    9   39 1
  23   12   40 1
  24   12   41 1
  25   12   42 1
  26   13   14 2
  27   15   43 1
  28   15   44 1
  29   15   45 1
  30   16   46 1
  31   17   18 1
  32   18   19 1
  33   18   20 1
  34   18   21 1
  35   19   25 ar
  36   19   26 ar
  37   20   30 ar
  38   20   34 ar
  39   21   22 1
  40   21   23 1
  41   21   24 1
  42   22   47 1
  43   22   48 1
  44   22   49 1
  45   23   50 1
  46   23   51 1
  47   23   52 1
  48   24   53 1
  49   24   54 1
  50   24   55 1
  51   25   29 ar
  52   25   56 1
  53   26   27 ar
  54   26   57 1
  55   27   28 ar
  56   27   58 1
  57   28   29 ar
  58   28   59 1
  59   29   60 1
  60   30   31 ar
  61   30   61 1
  62   31   32 ar
  63   31   62 1
  64   32   33 ar
  65   32   63 1
  66   33   34 ar
  67   33   64 1
  68   34   65 1

#	End of record

