#	Name: ASD01916730
#	Creating user name:	WinNT
#	Creation time:	15. 06. 2019 20:07

#	Modifying user name:	WinNT
#	Modification time:	15. 06. 2019 20:07

#	Program:	/corina/corina34_cracker 3.40 0067  02.08.2006

@<TRIPOS>MOLECULE
ASD01916730
  46   49    0    0    0
SMALL
NO_CHARGES


@<TRIPOS>ATOM
   1 C1            -0.0159     1.4198    -0.0042 C.ar    
   2 C2             0.0071     0.0058    -0.0143 C.ar    
   3 C3            -1.1855    -0.7157     0.0269 C.ar    
   4 C4            -2.3778    -0.0512     0.0638 C.ar    
   5 C5            -2.4143     1.3444     0.0612 C.ar    
   6 C6            -1.2424     2.0815     0.0276 C.ar    
   7 N7             1.1589     2.0882    -0.0150 N.2     
   8 C8             2.3202     1.4833    -0.0616 C.2     
   9 N9             2.4231     0.1356    -0.1811 N.am    
  10 C10            1.3154    -0.6495    -0.0833 C.2     
  11 N11           -3.6432     2.0028     0.0926 N.am    
  12 O12            1.4095    -1.8630    -0.0536 O.2     
  13 C13           -3.7670     3.1669     0.7604 C.2     
  14 C14            3.5346     2.3634     0.0766 C.3     
  15 C15            4.7906     1.7141    -0.4613 C.3     
  16 C16            4.8998     0.2576    -0.0591 C.3     
  17 C17            3.6832    -0.5429    -0.4651 C.3     
  18 C18            6.1371    -0.3490    -0.7239 C.3     
  19 C19            5.0645     0.1736     1.4597 C.3     
  20 C20           -5.0376     3.9257     0.6967 C.ar    
  21 N21           -6.0506     3.4540    -0.0196 N.ar    
  22 C22           -7.1953     4.0965    -0.1023 C.ar    
  23 C23           -7.3863     5.2984     0.5601 C.ar    
  24 C24           -6.3542     5.8272     1.3197 C.ar    
  25 C25           -5.1614     5.1256     1.3939 C.ar    
  26 O26           -2.8364     3.5941     1.4146 O.2     
  27 H27           -1.1662    -1.7955     0.0292 H       
  28 H28           -3.3012    -0.6105     0.0950 H       
  29 H29           -1.2785     3.1609     0.0262 H       
  30 H30           -4.4088     1.6229    -0.3661 H       
  31 H31            3.3592     3.2928    -0.4652 H       
  32 H32            3.6826     2.5958     1.1312 H       
  33 H33            4.7853     1.7812    -1.5493 H       
  34 H34            5.6582     2.2524    -0.0798 H       
  35 H35            3.6963    -1.4935     0.0681 H       
  36 H36            3.7384    -0.7443    -1.5349 H       
  37 H37            7.0262     0.1908    -0.3979 H       
  38 H38            6.2245    -1.3979    -0.4404 H       
  39 H39            6.0421    -0.2721    -1.8070 H       
  40 H40            4.1993     0.6257     1.9445 H       
  41 H41            5.1440    -0.8714     1.7592 H       
  42 H42            5.9675     0.7066     1.7572 H       
  43 H43           -7.9972     3.6817    -0.6950 H       
  44 H44           -8.3299     5.8184     0.4851 H       
  45 H45           -6.4785     6.7624     1.8454 H       
  46 H46           -4.3365     5.5079     1.9768 H       
@<TRIPOS>BOND
   1    1    2 ar
   2    1    7 1
   3    1    6 ar
   4    2    3 ar
   5    2   10 1
   6    3    4 ar
   7    3   27 1
   8    4    5 ar
   9    4   28 1
  10    5    6 ar
  11    5   11 1
  12    6   29 1
  13    7    8 2
  14    8    9 1
  15    8   14 1
  16    9   10 am
  17    9   17 1
  18   10   12 2
  19   11   13 am
  20   11   30 1
  21   13   20 1
  22   13   26 2
  23   14   15 1
  24   14   31 1
  25   14   32 1
  26   15   16 1
  27   15   33 1
  28   15   34 1
  29   16   17 1
  30   16   18 1
  31   16   19 1
  32   17   35 1
  33   17   36 1
  34   18   37 1
  35   18   38 1
  36   18   39 1
  37   19   40 1
  38   19   41 1
  39   19   42 1
  40   20   21 ar
  41   20   25 ar
  42   21   22 ar
  43   22   23 ar
  44   22   43 1
  45   23   24 ar
  46   23   44 1
  47   24   25 ar
  48   24   45 1
  49   25   46 1

#	End of record

