#	Name: ASD00111081
#	Creating user name:	WinNT
#	Creation time:	15. 06. 2019 18:30

#	Modifying user name:	WinNT
#	Modification time:	15. 06. 2019 18:30

#	Program:	/corina/corina34_cracker 3.40 0067  02.08.2006

@<TRIPOS>MOLECULE
ASD00111081
  43   45    0    0    0
SMALL
NO_CHARGES


@<TRIPOS>ATOM
   1 N1             0.2961     1.5596     0.0551 N.am    
   2 C2             0.1652     0.1077    -0.0173 C.3     
   3 C3             0.6304    -0.5204     1.3009 C.3     
   4 C4             2.1407    -0.6054     1.2908 C.ar    
   5 C5             2.8995     0.5364     1.3949 C.ar    
   6 C6             2.2297     1.8871     1.5200 C.3     
   7 C7             1.5817     2.2400     0.1766 C.3     
   8 C8             4.2822     0.4644     1.3877 C.ar    
   9 C9             4.9091    -0.7654     1.2740 C.ar    
  10 C10            4.1399    -1.9302     1.1667 C.ar    
  11 C11            2.7476    -1.8415     1.1763 C.ar    
  12 C12            4.7995    -3.2473     1.0440 C.2     
  13 C13            5.7791    -3.5486     0.1684 C.2     
  14 C14            6.2395    -4.8476     0.2430 C.2     
  15 C15            5.6460    -5.6060     1.1687 C.2     
  16 S16            4.4329    -4.6619     2.0229 S.3     
  17 C17            0.1731     0.3495     2.4735 C.3     
  18 O18            6.2657    -0.8410     1.2662 O.3     
  19 C19            6.9847     0.3888     1.3790 C.3     
  20 C20           -0.8234     2.3082     0.0017 C.2     
  21 O21           -1.9065     1.7727    -0.1041 O.2     
  22 C22           -0.7294     3.8105     0.0734 C.3     
  23 F23           -2.0129     4.3621    -0.0010 F       
  24 F24           -0.1310     4.1832     1.2818 F       
  25 F25            0.0429     4.2809    -0.9940 F       
  26 H26           -0.8779    -0.1539    -0.1952 H       
  27 H27            0.7777    -0.2712    -0.8354 H       
  28 H28            0.2085    -1.5208     1.3983 H       
  29 H29            1.4644     1.8454     2.2950 H       
  30 H30            2.9732     2.6416     1.7772 H       
  31 H31            2.2367     1.9249    -0.6357 H       
  32 H32            1.4282     3.3176     0.1202 H       
  33 H33            4.8711     1.3660     1.4702 H       
  34 H34            2.1467    -2.7351     1.0946 H       
  35 H35            6.1723    -2.8305    -0.5359 H       
  36 H36            7.0217    -5.2232    -0.3999 H       
  37 H37            5.8786    -6.6422     1.3653 H       
  38 H38           -0.7883    -0.0106     2.8398 H       
  39 H39            0.9102     0.2960     3.2747 H       
  40 H40            0.0717     1.3827     2.1415 H       
  41 H41            6.7229     1.0405     0.5455 H       
  42 H42            6.7240     0.8772     2.3179 H       
  43 H43            8.0556     0.1866     1.3597 H       
@<TRIPOS>BOND
   1    1    2 1
   2    1    7 1
   3    1   20 am
   4    2    3 1
   5    2   26 1
   6    2   27 1
   7    3    4 1
   8    3   17 1
   9    3   28 1
  10    4    5 ar
  11    4   11 ar
  12    5    6 1
  13    5    8 ar
  14    6    7 1
  15    6   29 1
  16    6   30 1
  17    7   31 1
  18    7   32 1
  19    8    9 ar
  20    8   33 1
  21    9   10 ar
  22    9   18 1
  23   10   11 ar
  24   10   12 1
  25   11   34 1
  26   12   13 2
  27   12   16 1
  28   13   14 1
  29   13   35 1
  30   14   15 2
  31   14   36 1
  32   15   16 1
  33   15   37 1
  34   17   38 1
  35   17   39 1
  36   17   40 1
  37   18   19 1
  38   19   41 1
  39   19   42 1
  40   19   43 1
  41   20   21 2
  42   20   22 1
  43   22   23 1
  44   22   24 1
  45   22   25 1

#	End of record

