#	Name: ASD00170235
#	Creating user name:	WinNT
#	Creation time:	15. 06. 2019 18:31

#	Modifying user name:	WinNT
#	Modification time:	15. 06. 2019 18:31

#	Program:	/corina/corina34_cracker 3.40 0067  02.08.2006

@<TRIPOS>MOLECULE
ASD00170235
  35   37    0    0    0
SMALL
NO_CHARGES


@<TRIPOS>ATOM
   1 C1             0.0055     1.3244     0.0069 C.2     
   2 C2             0.0169    -0.0127    -0.0003 C.2     
   3 C3            -1.3213    -0.5779     0.0100 C.2     
   4 C4            -2.3089     0.3691     0.0250 C.2     
   5 S5            -1.6408     1.9350     0.0199 S.3     
   6 N6            -3.6628     0.0925     0.0371 N.pl3   
   7 C7            -1.5869    -2.0179     0.0048 C.2     
   8 N8            -1.7208    -2.6742    -1.1647 N.am    
   9 O9            -1.6868    -2.6222     1.0569 O.2     
  10 C10           -1.8630    -4.0659    -1.1735 C.ar    
  11 C11            1.2511     2.1899    -0.0018 C.3     
  12 C12            2.4522     1.3281     0.3965 C.3     
  13 C13            2.4549     0.0526    -0.4514 C.3     
  14 C14            1.2913    -0.8416    -0.0173 C.3     
  15 C15           -2.6699    -4.6768    -2.1245 C.ar    
  16 C16           -2.8081    -6.0509    -2.1312 C.ar    
  17 C17           -2.1438    -6.8188    -1.1913 C.ar    
  18 C18           -1.3396    -6.2129    -0.2423 C.ar    
  19 C19           -1.1929    -4.8396    -0.2349 C.ar    
  20 Br20          -2.3360    -8.7000    -1.2032 Br      
  21 H21           -3.9699    -0.8277     0.0352 H       
  22 H22           -4.3061     0.8184     0.0475 H       
  23 H23           -1.7186    -2.1816    -2.0003 H       
  24 H24            1.4075     2.5953    -1.0015 H       
  25 H25            1.1341     3.0058     0.7115 H       
  26 H26            3.3736     1.8838     0.2220 H       
  27 H27            2.3781     1.0645     1.4515 H       
  28 H28            2.3405     0.3142    -1.5034 H       
  29 H29            3.3958    -0.4785    -0.3075 H       
  30 H30            1.4851    -1.2345     0.9808 H       
  31 H31            1.1815    -1.6661    -0.7217 H       
  32 H32           -3.1892    -4.0778    -2.8580 H       
  33 H33           -3.4355    -6.5265    -2.8705 H       
  34 H34           -0.8225    -6.8147     0.4904 H       
  35 H35           -0.5651    -4.3671     0.5061 H       
@<TRIPOS>BOND
   1    1    2 2
   2    1   11 1
   3    1    5 1
   4    2    3 1
   5    2   14 1
   6    3    4 2
   7    3    7 1
   8    4    5 1
   9    4    6 1
  10    6   21 1
  11    6   22 1
  12    7    8 am
  13    7    9 2
  14    8   10 1
  15    8   23 1
  16   10   15 ar
  17   10   19 ar
  18   11   12 1
  19   11   24 1
  20   11   25 1
  21   12   13 1
  22   12   26 1
  23   12   27 1
  24   13   14 1
  25   13   28 1
  26   13   29 1
  27   14   30 1
  28   14   31 1
  29   15   16 ar
  30   15   32 1
  31   16   17 ar
  32   16   33 1
  33   17   18 ar
  34   17   20 1
  35   18   19 ar
  36   18   34 1
  37   19   35 1

#	End of record

