#	Name: ASD08151010
#	Creating user name:	WinNT
#	Creation time:	15. 06. 2019 21:16

#	Modifying user name:	WinNT
#	Modification time:	15. 06. 2019 21:16

#	Program:	/corina/corina34_cracker 3.40 0067  02.08.2006

@<TRIPOS>MOLECULE
ASD08151010
  34   36    0    0    0
SMALL
NO_CHARGES


@<TRIPOS>ATOM
   1 C1            -0.0187     1.5258     0.0104 C.3     
   2 C2             0.0021    -0.0041     0.0020 C.3     
   3 N3             4.1072     2.8108     2.3069 N.ar    
   4 C4             5.3379     3.2641     2.2990 C.ar    
   5 C5             5.9792     3.6206     1.1151 C.ar    
   6 C6             5.3239     3.5010    -0.0774 C.ar    
   7 C7             4.0028     3.0138    -0.0636 C.ar    
   8 C8             3.2684     2.8648    -1.2511 C.ar    
   9 C9             1.9917     2.3905    -1.2081 C.ar    
  10 C10            1.3951     2.0474    -0.0003 C.ar    
  11 C11            2.0841     2.1797     1.1921 C.ar    
  12 C12            3.4120     2.6702     1.1765 C.ar    
  13 C13            1.4380     1.8119     2.4736 C.ar    
  14 C14            1.9326     0.7473     3.2260 C.ar    
  15 C15            1.3266     0.4083     4.4212 C.ar    
  16 C16            0.2294     1.1240     4.8716 C.ar    
  17 C17           -0.2660     2.1821     4.1274 C.ar    
  18 C18            0.3369     2.5328     2.9340 C.ar    
  19 F19           -1.3369     2.8758     4.5714 F       
  20 F20            1.8049    -0.6230     5.1512 F       
  21 O21           -0.7098     1.9991    -1.1473 O.3     
  22 H22           -0.5289     1.8773     0.9072 H       
  23 H23            0.5123    -0.3556    -0.8948 H       
  24 H24            0.5293    -0.3651     0.8851 H       
  25 H25           -1.0205    -0.3814     0.0098 H       
  26 H26            5.8677     3.3641     3.2349 H       
  27 H27            6.9933     3.9913     1.1399 H       
  28 H28            5.8054     3.7730    -1.0050 H       
  29 H29            3.7156     3.1259    -2.1988 H       
  30 H30            1.4345     2.2796    -2.1266 H       
  31 H31            2.7876     0.1883     2.8754 H       
  32 H32           -0.2416     0.8559     5.8057 H       
  33 H33           -0.0471     3.3610     2.3568 H       
  34 H34           -1.6280     1.7017    -1.2062 H       
@<TRIPOS>BOND
   1    1    2 1
   2    1   10 1
   3    1   21 1
   4    1   22 1
   5    2   23 1
   6    2   24 1
   7    2   25 1
   8    3    4 ar
   9    3   12 ar
  10    4    5 ar
  11    4   26 1
  12    5    6 ar
  13    5   27 1
  14    6    7 ar
  15    6   28 1
  16    7    8 ar
  17    7   12 ar
  18    8    9 ar
  19    8   29 1
  20    9   10 ar
  21    9   30 1
  22   10   11 ar
  23   11   12 ar
  24   11   13 1
  25   13   14 ar
  26   13   18 ar
  27   14   15 ar
  28   14   31 1
  29   15   16 ar
  30   15   20 1
  31   16   17 ar
  32   16   32 1
  33   17   18 ar
  34   17   19 1
  35   18   33 1
  36   21   34 1

#	End of record

