#	Name: ASD03330180
#	Creating user name:	WinNT
#	Creation time:	15. 06. 2019 20:36

#	Modifying user name:	WinNT
#	Modification time:	15. 06. 2019 20:36

#	Program:	/corina/corina34_cracker 3.40 0067  02.08.2006

@<TRIPOS>MOLECULE
ASD03330180
  50   53    0    0    0
SMALL
NO_CHARGES


@<TRIPOS>ATOM
   1 C1            -0.5990     0.6279    -2.9922 C.ar    
   2 C2            -0.3245    -0.1243    -1.8465 C.ar    
   3 C3            -1.3598    -0.6310    -1.0933 C.ar    
   4 C4            -2.6776    -0.3951    -1.4713 C.ar    
   5 C5            -2.9545     0.3527    -2.6111 C.ar    
   6 C6            -1.9244     0.8678    -3.3657 C.ar    
   7 N7            -3.7242    -0.9101    -0.7055 N.am    
   8 C8            -4.8806    -0.2263    -0.5982 C.2     
   9 N9            -5.9280    -0.7715     0.0515 N.am    
  10 O10           -4.9789     0.8825    -1.0873 O.2     
  11 C11           -7.0914    -0.0212     0.2572 C.ar    
  12 C12           -8.3285    -0.6470     0.2610 C.ar    
  13 C13           -9.4834     0.1038     0.4661 C.ar    
  14 C14           -9.3891     1.4799     0.6662 C.ar    
  15 C15           -8.1532     2.0956     0.6609 C.ar    
  16 C16           -7.0064     1.3505     0.4632 C.ar    
  17 C17          -10.8105    -0.5593     0.4710 C.ar    
  18 N18          -10.8910    -1.8706     0.2791 N.ar    
  19 C19          -11.9583     0.1981     0.6823 C.ar    
  20 C20          -13.1938    -0.4312     0.6855 C.ar    
  21 C21          -13.2413    -1.7986     0.4770 C.ar    
  22 C22          -12.0550    -2.4989     0.2768 C.ar    
  23 N23          -12.0945    -3.8722     0.0663 N.3     
  24 C24          -10.7375    -4.4170    -0.1229 C.3     
  25 C25          -10.5333    -5.5155     0.9414 C.3     
  26 C26          -11.9852    -5.9232     1.3059 C.3     
  27 C27          -12.7249    -4.5656     1.2098 C.3     
  28 C28            0.4751     1.1565    -3.7781 C.1     
  29 N29            1.3272     1.5758    -4.4015 N.1     
  30 H30            0.6983    -0.3081    -1.5525 H       
  31 H31           -1.1485    -1.2125    -0.2081 H       
  32 H32           -3.9788     0.5333    -2.9020 H       
  33 H33           -2.1401     1.4486    -4.2504 H       
  34 H34           -3.6194    -1.7603    -0.2505 H       
  35 H35           -5.8756    -1.6839     0.3764 H       
  36 H36           -8.3964    -1.7136     0.1051 H       
  37 H37          -10.2830     2.0648     0.8251 H       
  38 H38           -8.0823     3.1620     0.8162 H       
  39 H39           -6.0421     1.8368     0.4603 H       
  40 H40          -11.8878     1.2639     0.8424 H       
  41 H41          -14.0999     0.1337     0.8476 H       
  42 H42          -14.1885    -2.3175     0.4738 H       
  43 H43          -10.6460    -4.8459    -1.1208 H       
  44 H44           -9.9986    -3.6272     0.0128 H       
  45 H45           -9.9891    -6.3618     0.5223 H       
  46 H46          -10.0149    -5.1160     1.8131 H       
  47 H47          -12.3832    -6.6366     0.5843 H       
  48 H48          -12.0356    -6.3246     2.3180 H       
  49 H49          -12.5848    -3.9915     2.1257 H       
  50 H50          -13.7862    -4.7243     1.0191 H       
@<TRIPOS>BOND
   1    1    2 ar
   2    1   28 1
   3    1    6 ar
   4    2    3 ar
   5    2   30 1
   6    3    4 ar
   7    3   31 1
   8    4    5 ar
   9    4    7 1
  10    5    6 ar
  11    5   32 1
  12    6   33 1
  13    7    8 am
  14    7   34 1
  15    8    9 am
  16    8   10 2
  17    9   11 1
  18    9   35 1
  19   11   12 ar
  20   11   16 ar
  21   12   13 ar
  22   12   36 1
  23   13   14 ar
  24   13   17 1
  25   14   15 ar
  26   14   37 1
  27   15   16 ar
  28   15   38 1
  29   16   39 1
  30   17   18 ar
  31   17   19 ar
  32   18   22 ar
  33   19   20 ar
  34   19   40 1
  35   20   21 ar
  36   20   41 1
  37   21   22 ar
  38   21   42 1
  39   22   23 1
  40   23   24 1
  41   23   27 1
  42   24   25 1
  43   24   43 1
  44   24   44 1
  45   25   26 1
  46   25   45 1
  47   25   46 1
  48   26   27 1
  49   26   47 1
  50   26   48 1
  51   27   49 1
  52   27   50 1
  53   28   29 3

#	End of record

