#	Name: ASD01916609
#	Creating user name:	WinNT
#	Creation time:	15. 06. 2019 20:07

#	Modifying user name:	WinNT
#	Modification time:	15. 06. 2019 20:07

#	Program:	/corina/corina34_cracker 3.40 0067  02.08.2006

@<TRIPOS>MOLECULE
ASD01916609
  31   33    0    0    0
SMALL
NO_CHARGES


@<TRIPOS>ATOM
   1 O1            -0.0161     1.3381     0.0094 O.3     
   2 C2             0.0021    -0.0041     0.0020 C.2     
   3 N3             1.2264    -0.4381    -0.0120 N.2     
   4 C4             2.0701     0.6294    -0.0143 C.ar    
   5 C5             1.2620     1.7767    -0.0004 C.ar    
   6 C6             1.8477     3.0332     0.0003 C.ar    
   7 C7             3.2220     3.1511    -0.0126 C.ar    
   8 C8             4.0251     2.0194    -0.0263 C.ar    
   9 C9             3.4592     0.7626    -0.0269 C.ar    
  10 C10           -1.2228    -0.8820     0.0090 C.3     
  11 C11           -1.6235    -1.1868     1.4538 C.3     
  12 C12           -2.8199    -2.0444     1.4606 C.1     
  13 C13           -3.7741    -2.7283     1.4660 C.1     
  14 C14           -4.9380    -3.5625     1.4727 C.ar    
  15 C15           -5.4892    -3.9724     2.6873 C.ar    
  16 C16           -6.6137    -4.7782     2.6770 C.ar    
  17 C17           -7.1522    -5.1492     1.4525 C.ar    
  18 C18           -6.5551    -4.7070     0.2864 C.ar    
  19 N19           -5.4877    -3.9358     0.3228 N.ar    
  20 Cl20           5.7528     2.1876    -0.0430 Cl      
  21 H21            1.2290     3.9183     0.0106 H       
  22 H22            3.6761     4.1309    -0.0123 H       
  23 H23            4.0881    -0.1153    -0.0376 H       
  24 H24           -2.0414    -0.3675    -0.4943 H       
  25 H25           -1.0046    -1.8142    -0.5120 H       
  26 H26           -0.8049    -1.7013     1.9571 H       
  27 H27           -1.8417    -0.2546     1.9747 H       
  28 H28           -5.0440    -3.6652     3.6221 H       
  29 H29           -7.0624    -5.1115     3.6010 H       
  30 H30           -8.0294    -5.7778     1.4110 H       
  31 H31           -6.9720    -4.9946    -0.6675 H       
@<TRIPOS>BOND
   1    1    2 1
   2    1    5 1
   3    2    3 2
   4    2   10 1
   5    3    4 1
   6    4    5 ar
   7    4    9 ar
   8    5    6 ar
   9    6    7 ar
  10    6   21 1
  11    7    8 ar
  12    7   22 1
  13    8    9 ar
  14    8   20 1
  15    9   23 1
  16   10   11 1
  17   10   24 1
  18   10   25 1
  19   11   12 1
  20   11   26 1
  21   11   27 1
  22   12   13 3
  23   13   14 1
  24   14   15 ar
  25   14   19 ar
  26   15   16 ar
  27   15   28 1
  28   16   17 ar
  29   16   29 1
  30   17   18 ar
  31   17   30 1
  32   18   19 ar
  33   18   31 1

#	End of record

