#	Name: ASD03730146
#	Creating user name:	WinNT
#	Creation time:	15. 06. 2019 20:44

#	Modifying user name:	WinNT
#	Modification time:	15. 06. 2019 20:44

#	Program:	/corina/corina34_cracker 3.40 0067  02.08.2006

@<TRIPOS>MOLECULE
ASD03730146
  42   46    0    0    0
SMALL
NO_CHARGES


@<TRIPOS>ATOM
   1 C1             0.0021    -0.0041     0.0020 C.1     
   2 C2            -0.0179     1.4678     0.0101 C.3     
   3 C3             1.4175     1.9974    -0.0007 C.3     
   4 C4             1.3967     3.5272     0.0077 C.3     
   5 N5             0.0175    -1.1399    -0.0042 N.1     
   6 O6             7.6759     0.8142    -2.2066 O.3     
   7 C7             9.0897     0.9089    -2.4618 C.3     
   8 O8             9.2564     2.2440    -2.9744 O.3     
   9 C9             8.2351     2.9729    -2.4354 C.ar    
  10 C10            7.2631     2.0932    -1.9643 C.ar    
  11 C11            8.0537     4.3381    -2.3055 C.ar    
  12 C12            6.9029     4.8427    -1.7074 C.ar    
  13 C13            5.9353     3.9543    -1.2482 C.ar    
  14 C14            6.1160     2.5924    -1.3707 C.ar    
  15 O15            6.5398     6.1355    -1.4682 O.3     
  16 C16            4.8163     4.7908    -0.6878 C.3     
  17 C17            5.1202     6.1940    -1.2301 C.3     
  18 N18            2.7712     4.0343    -0.0027 N.am    
  19 C19            3.4663     4.3012    -1.1264 C.2     
  20 C20            4.7807     4.7659     0.8115 C.ar    
  21 C21            5.6923     5.0929     1.7904 C.ar    
  22 C22            5.3536     4.9594     3.1252 C.ar    
  23 C23            4.0978     4.4964     3.4737 C.ar    
  24 C24            3.1816     4.1667     2.4968 C.ar    
  25 C25            3.5137     4.2983     1.1507 C.ar    
  26 O26            3.0773     4.1717    -2.2679 O.2     
  27 H27           -0.5451     1.8289    -0.8729 H       
  28 H28           -0.5281     1.8193     0.9069 H       
  29 H29            1.9447     1.6363     0.8823 H       
  30 H30            1.9277     1.6458    -0.8975 H       
  31 H31            0.8696     3.8883    -0.8754 H       
  32 H32            0.8866     3.8787     0.9045 H       
  33 H33            9.6550     0.7797    -1.5389 H       
  34 H34            9.3949     0.1724    -3.2052 H       
  35 H35            8.8102     5.0169    -2.6707 H       
  36 H36            5.3607     1.9136    -1.0031 H       
  37 H37            4.8833     6.9558    -0.4874 H       
  38 H38            4.5791     6.3756    -2.1588 H       
  39 H39            6.6724     5.4540     1.5160 H       
  40 H40            6.0680     5.2166     3.8932 H       
  41 H41            3.8335     4.3922     4.5156 H       
  42 H42            2.2031     3.8053     2.7768 H       
@<TRIPOS>BOND
   1    1    2 1
   2    1    5 3
   3    2    3 1
   4    2   27 1
   5    2   28 1
   6    3    4 1
   7    3   29 1
   8    3   30 1
   9    4   18 1
  10    4   31 1
  11    4   32 1
  12    6    7 1
  13    6   10 1
  14    7    8 1
  15    7   33 1
  16    7   34 1
  17    8    9 1
  18    9   10 ar
  19    9   11 ar
  20   10   14 ar
  21   11   12 ar
  22   11   35 1
  23   12   13 ar
  24   12   15 1
  25   13   14 ar
  26   13   16 1
  27   14   36 1
  28   15   17 1
  29   16   17 1
  30   16   19 1
  31   16   20 1
  32   17   37 1
  33   17   38 1
  34   18   19 am
  35   18   25 1
  36   19   26 2
  37   20   21 ar
  38   20   25 ar
  39   21   22 ar
  40   21   39 1
  41   22   23 ar
  42   22   40 1
  43   23   24 ar
  44   23   41 1
  45   24   25 ar
  46   24   42 1

#	End of record

