#	Name: ASD03092820
#	Creating user name:	WinNT
#	Creation time:	15. 06. 2019 20:33

#	Modifying user name:	WinNT
#	Modification time:	15. 06. 2019 20:33

#	Program:	/corina/corina34_cracker 3.40 0067  02.08.2006

@<TRIPOS>MOLECULE
ASD03092820
  49   51    0    0    0
SMALL
NO_CHARGES


@<TRIPOS>ATOM
   1 C1             1.8761     1.4135     0.3467 C.3     
   2 C2             1.8747    -0.1125     0.2364 C.3     
   3 C3             1.2121    -0.5223    -1.0536 C.2     
   4 O4             0.7825     0.3244    -1.8115 O.2     
   5 C5             1.0907    -1.8882    -1.3808 C.2     
   6 C6             0.5139    -2.3791    -2.5251 C.2     
   7 C7             0.5119    -3.7404    -2.6233 C.2     
   8 C8            -0.0754    -4.4681    -3.8051 C.3     
   9 C9             1.0843    -4.3930    -1.5667 C.2     
  10 S10            1.6622    -3.2227    -0.3886 S.3     
  11 C11            1.2039    -5.8592    -1.4372 C.ar    
  12 C12            1.6867    -6.6187    -2.5063 C.ar    
  13 C13            1.7990    -7.9877    -2.3884 C.ar    
  14 C14            1.4339    -8.6192    -1.2084 C.ar    
  15 O15            1.5465    -9.9677    -1.0978 O.3     
  16 C16            2.0480   -10.6722    -2.2354 C.3     
  17 C17            0.9500    -7.8672    -0.1313 C.ar    
  18 C18            0.8404    -6.4868    -0.2456 C.ar    
  19 C19            0.5595    -8.5421     1.1307 C.ar    
  20 C20           -0.2896    -9.6466     1.0995 C.ar    
  21 C21           -0.6492   -10.2709     2.2766 C.ar    
  22 C22           -0.1687    -9.8019     3.4860 C.ar    
  23 C23            0.6740    -8.7056     3.5230 C.ar    
  24 C24            1.0451    -8.0774     2.3515 C.ar    
  25 S25           -0.6325   -10.6035     4.9850 S.o2    
  26 N26            0.4903   -11.7853     5.2766 N.am    
  27 O27           -0.4794    -9.6407     6.0189 O.2     
  28 O28           -1.8585   -11.2713     4.7202 O.2     
  29 H29            2.4244     1.8381    -0.4943 H       
  30 H30            0.8496     1.7797     0.3332 H       
  31 H31            2.3554     1.7099     1.2797 H       
  32 H32            2.9013    -0.4787     0.2499 H       
  33 H33            1.3264    -0.5371     1.0774 H       
  34 H34            0.0945    -1.7392    -3.2872 H       
  35 H35            0.7144    -4.6949    -4.5212 H       
  36 H36           -0.5373    -5.3959    -3.4676 H       
  37 H37           -0.8281    -3.8398    -4.2812 H       
  38 H38            1.9723    -6.1321    -3.4272 H       
  39 H39            2.1720    -8.5706    -3.2175 H       
  40 H40            1.3897   -10.5022    -3.0874 H       
  41 H41            3.0494   -10.3132    -2.4728 H       
  42 H42            2.0874   -11.7388    -2.0139 H       
  43 H43            0.4714    -5.9021     0.5841 H       
  44 H44           -0.6659   -10.0132     0.1558 H       
  45 H45           -1.3072   -11.1270     2.2536 H       
  46 H46            1.0459    -8.3434     4.4701 H       
  47 H47            1.7068    -7.2243     2.3812 H       
  48 H48            1.2271   -11.9171     4.6596 H       
  49 H49            0.4112   -12.3457     6.0643 H       
@<TRIPOS>BOND
   1    1    2 1
   2    1   29 1
   3    1   30 1
   4    1   31 1
   5    2    3 1
   6    2   32 1
   7    2   33 1
   8    3    4 2
   9    3    5 1
  10    5   10 1
  11    5    6 2
  12    6    7 1
  13    6   34 1
  14    7    8 1
  15    7    9 2
  16    8   35 1
  17    8   36 1
  18    8   37 1
  19    9   10 1
  20    9   11 1
  21   11   18 ar
  22   11   12 ar
  23   12   13 ar
  24   12   38 1
  25   13   14 ar
  26   13   39 1
  27   14   15 1
  28   14   17 ar
  29   15   16 1
  30   16   40 1
  31   16   41 1
  32   16   42 1
  33   17   18 ar
  34   17   19 1
  35   18   43 1
  36   19   24 ar
  37   19   20 ar
  38   20   21 ar
  39   20   44 1
  40   21   22 ar
  41   21   45 1
  42   22   23 ar
  43   22   25 1
  44   23   24 ar
  45   23   46 1
  46   24   47 1
  47   25   26 am
  48   25   27 2
  49   25   28 2
  50   26   48 1
  51   26   49 1

#	End of record

