#	Name: ASD03130006
#	Creating user name:	WinNT
#	Creation time:	15. 06. 2019 20:33

#	Modifying user name:	WinNT
#	Modification time:	15. 06. 2019 20:33

#	Program:	/corina/corina34_cracker 3.40 0067  02.08.2006

@<TRIPOS>MOLECULE
ASD03130006
 344  345    0    0    0
SMALL
NO_CHARGES


@<TRIPOS>ATOM
   1 N1            -4.6868    -0.9917    -1.6520 N.am    
   2 C2            -3.3929   -53.9127   -28.3372 C.2     
   3 O3            -3.3510   -54.1920   -29.5116 O.2     
   4 C4            -4.5484   -54.3826   -27.4917 C.3     
   5 C5            -5.5204   -55.1864   -28.3578 C.3     
   6 C6            -6.6936   -55.6635   -27.4994 C.3     
   7 C7            -7.6655   -56.4673   -28.3655 C.3     
   8 C8            -8.8388   -56.9444   -27.5071 C.3     
   9 C9            -9.8107   -57.7482   -28.3731 C.3     
  10 C10          -10.9839   -58.2252   -27.5147 C.3     
  11 C11          -11.9558   -59.0291   -28.3808 C.3     
  12 C12          -13.1291   -59.5061   -27.5224 C.3     
  13 C13          -14.1010   -60.3099   -28.3885 C.3     
  14 C14          -15.2742   -60.7870   -27.5301 C.3     
  15 C15          -16.2462   -61.5908   -28.3961 C.3     
  16 C16          -17.4194   -62.0679   -27.5377 C.3     
  17 C17          -18.3913   -62.8717   -28.4038 C.3     
  18 C18          -19.5645   -63.3488   -27.5454 C.3     
  19 C19            2.6415    -7.1387    -2.5771 C.3     
  20 C20            1.5904    -8.2357    -2.3966 C.3     
  21 C21            0.4235    -7.6895    -1.6149 C.2     
  22 N22            2.1804    -9.3625    -1.6698 N.am    
  23 O23            0.3129    -7.9426    -0.4340 O.2     
  24 O24            3.0871    -6.6903    -1.2955 O.3     
  25 C25            3.8297    -7.6953    -3.3641 C.3     
  26 C26           -2.7257    -7.3048    -1.2968 C.3     
  27 C27           -1.5760    -6.3068    -1.4490 C.3     
  28 C28           -2.0717    -5.0742    -2.1604 C.2     
  29 N29           -0.4973    -6.9197    -2.2281 N.am    
  30 O30           -1.8417    -4.9219    -3.3414 O.2     
  31 C31           -3.1797    -7.7748    -2.6802 C.3     
  32 C32           -2.2515    -8.5082    -0.4795 C.3     
  33 C33           -3.4322    -9.4463    -0.2211 C.3     
  34 C34           -3.3478    -2.9988    -2.1970 C.3     
  35 C35           -4.0734    -2.1109    -1.2191 C.2     
  36 N36           -2.7707    -4.1412    -1.4842 N.am    
  37 O37           -4.1052    -2.4036    -0.0426 O.2     
  38 C38           11.0737   -19.6716    -4.2088 C.3     
  39 C39            9.6124   -19.4137    -4.5818 C.3     
  40 C40            8.9703   -18.5482    -3.5284 C.2     
  41 N41            8.8978   -20.6897    -4.6676 N.am    
  42 O42            8.0103   -18.9570    -2.9101 O.2     
  43 C43           11.7593   -20.4444    -5.3374 C.3     
  44 C44           13.1986   -20.6984    -4.9700 C.2     
  45 O45           13.6332   -20.3005    -3.9100 O.2     
  46 N46           14.0029   -21.3678    -5.8195 N.am    
  47 C47            9.7798   -15.4535    -1.7248 C.3     
  48 C48            8.7747   -16.4363    -2.3289 C.3     
  49 C49            7.6962   -15.6711    -3.0515 C.2     
  50 N50            9.4629   -17.3199    -3.2732 N.am    
  51 O51            7.5197   -15.8466    -4.2385 O.2     
  52 C52           10.7993   -16.2120    -0.9147 C.2     
  53 O53           10.7685   -17.4194    -0.8826 O.2     
  54 O54           11.7417   -15.5462    -0.2288 O.3     
  55 C55            5.8791   -14.0480    -3.0812 C.3     
  56 C56            5.1712   -13.1390    -2.1098 C.2     
  57 N57            6.9276   -14.7918    -2.3787 N.am    
  58 O58            5.5092   -13.1150    -0.9452 O.2     
  59 C59            2.3695   -12.2492    -0.8749 C.3     
  60 C60            3.4742   -11.4693    -1.5906 C.3     
  61 C61            2.8672   -10.3101    -2.3383 C.2     
  62 N62            4.1624   -12.3529    -2.5350 N.am    
  63 O63            2.9967   -10.2300    -3.5415 O.2     
  64 N64            2.4917   -15.1833     1.5214 N.pl3   
  65 C65            1.6890   -16.0186     2.2617 C.2     
  66 N66            2.2229   -16.9561     2.9931 N.2     
  67 N67            0.3231   -15.8651     2.2306 N.pl3   
  68 C68            2.9963   -13.3497    -0.0164 C.3     
  69 C69            1.8915   -14.1295     0.6994 C.3     
  70 C70            5.6983   -28.4663    -9.3418 C.3     
  71 C71            7.0157   -28.4552   -10.1199 C.3     
  72 C72            7.6347   -27.0835   -10.0400 C.2     
  73 N73            6.7577   -28.7936   -11.5218 N.am    
  74 O74            7.8402   -26.4509   -11.0541 O.2     
  75 C75            5.1324   -29.8876    -9.3176 C.3     
  76 C76            3.8348   -29.8986    -8.5512 C.2     
  77 O77            3.4051   -28.8708    -8.0716 O.2     
  78 N78            3.1520   -31.0505    -8.3987 N.am    
  79 C79           10.0748   -25.3373    -8.9617 C.3     
  80 C80            8.5618   -25.2263    -8.7638 C.3     
  81 C81            8.2747   -24.6236    -7.4127 C.2     
  82 N82            7.9600   -26.5598    -8.8415 N.am    
  83 O83            7.9482   -25.3367    -6.4876 O.2     
  84 C84           10.6516   -26.3221    -7.9425 C.3     
  85 C85           10.3687   -25.8379   -10.3773 C.3     
  86 C86            6.7022   -22.4835    -5.6483 C.3     
  87 C87            8.1935   -22.7163    -5.8985 C.3     
  88 C88            8.9286   -21.4038    -5.8102 C.2     
  89 N89            8.3808   -23.2922    -7.2325 N.am    
  90 O90            9.5479   -20.9900    -6.7674 O.2     
  91 C91            5.9746   -23.8290    -5.6141 C.3     
  92 C92            4.5057   -23.5997    -5.3676 C.2     
  93 O93            4.0840   -22.4754    -5.2331 O.2     
  94 O94            3.6658   -24.6443    -5.2976 O.3     
  95 C95            4.4567   -34.7695   -18.7747 C.3     
  96 C96            4.2762   -35.8316   -17.6884 C.3     
  97 C97            5.1078   -35.4665   -16.4858 C.2     
  98 N98            4.7066   -37.1341   -18.2025 N.am    
  99 O99            5.9747   -36.2201   -16.0965 O.2     
 100 C100           5.9072   -34.7052   -19.1784 C.2     
 101 N101           6.3024   -33.8447   -20.1374 N.am    
 102 O102           6.7190   -35.4279   -18.6402 O.2     
 103 C103           5.0900   -34.5844   -13.4218 C.3     
 104 C104           5.6967   -33.9476   -14.6738 C.3     
 105 C105           5.7191   -32.4492   -14.5146 C.2     
 106 N106           4.8882   -34.3025   -15.8428 N.am    
 107 O107           5.1189   -31.7469   -15.3004 O.2     
 108 C108           5.1809   -36.1079   -13.5294 C.3     
 109 C109           6.6508   -36.5325   -13.5278 C.3     
 110 C110           4.4641   -36.7470   -12.3383 C.3     
 111 C111           7.5330   -29.8433   -14.2231 C.3     
 112 C112           6.4279   -30.4330   -13.3445 C.3     
 113 C113           6.6933   -30.0848   -11.9024 C.2     
 114 N114           6.4061   -31.8896   -13.4991 N.am    
 115 O115           6.8489   -30.9667   -11.0845 O.2     
 116 O116           8.8056   -30.2924   -13.7534 O.3     
 117 C117           2.9227   -43.2781   -25.8512 C.3     
 118 C118           2.6635   -44.1116   -24.5946 C.3     
 119 C119           2.1196   -43.2230   -23.5058 C.2     
 120 N120           1.6900   -45.1634   -24.8985 N.am    
 121 O121           1.0264   -43.4463   -23.0304 O.2     
 122 C122           3.5802   -44.1394   -26.8986 C.2     
 123 N123           2.9539   -44.8104   -27.9140 N.pl3   
 124 C124           3.9103   -45.4546   -28.6167 C.2     
 125 N125           5.0699   -45.2024   -28.0737 N.2     
 126 C126           4.8975   -44.3921   -27.0189 C.2     
 127 C127           1.4262   -40.2393   -22.6210 C.3     
 128 C128           2.3192   -41.3164   -22.0018 C.3     
 129 C129           3.4622   -40.6616   -21.2699 C.2     
 130 N130           2.8479   -42.1802   -23.0603 N.am    
 131 O131           4.6060   -40.8936   -21.6000 O.2     
 132 C132           2.2111   -39.4802   -23.6927 C.3     
 133 C133           0.1999   -40.8971   -23.2569 C.3     
 134 C134           4.8355   -40.1217   -18.4434 C.3     
 135 C135           4.3247   -39.1815   -19.5371 C.3     
 136 C136           3.8499   -37.8950   -18.9121 C.2     
 137 N137           3.2135   -39.8181   -20.2485 N.am    
 138 O138           2.6968   -37.5445   -19.0476 O.2     
 139 C139           5.4318   -41.3755   -19.0863 C.3     
 140 C140           5.9348   -42.3016   -18.0091 C.2     
 141 O141           5.8271   -41.9895   -16.8421 O.2     
 142 N142           6.5045   -43.4766   -18.3426 N.am    
 143 C143          -1.1490   -52.6357   -28.5715 C.3     
 144 C144          -2.3046   -53.1055   -27.7260 C.2     
 145 N145          -0.2158   -51.8639   -27.7399 N.3     
 146 O146          -2.3465   -52.8263   -26.5516 O.2     
 147 C147           2.3713   -51.5056   -26.5593 C.3     
 148 C148           1.8475   -50.6216   -27.6929 C.3     
 149 C149           1.1333   -49.4290   -27.1109 C.2     
 150 N150           0.9143   -51.3933   -28.5245 N.3     
 151 O151          -0.0377   -49.2405   -27.3639 O.2     
 152 N152           4.5217   -54.6267   -26.5744 N.pl3   
 153 C153           5.0987   -55.5554   -25.7410 C.2     
 154 N154           5.8066   -56.5290   -26.2409 N.2     
 155 N155           4.9291   -55.4572   -24.3802 N.pl3   
 156 C156           3.2022   -52.6484   -27.1461 C.3     
 157 C157           3.7260   -53.5325   -26.0125 C.3     
 158 C158           1.1017   -47.4125   -25.7434 C.3     
 159 C159           2.1031   -46.3306   -25.4308 C.2     
 160 N160           1.7960   -48.5719   -26.3092 N.am    
 161 O161           3.2808   -46.5103   -25.6583 O.2     
 162 C162          -0.4247   -50.1726   -24.7947 C.ar    
 163 C163          -1.4201   -51.0828   -25.0976 C.ar    
 164 C164          -2.6950   -50.6392   -25.3953 C.ar    
 165 C165          -2.9747   -49.2854   -25.3897 C.ar    
 166 C166          -1.9792   -48.3752   -25.0873 C.ar    
 167 C167          -0.7043   -48.8188   -24.7896 C.ar    
 168 C168           0.3807   -47.8266   -24.4590 C.3     
 169 H169          -4.6613    -0.7576    -2.5930 H       
 170 H170          -5.1572    -0.4223    -1.0232 H       
 171 H171          -4.1753   -55.0124   -26.6841 H       
 172 H172          -5.0650   -53.5200   -27.0708 H       
 173 H173          -5.8936   -54.5566   -29.1654 H       
 174 H174          -5.0038   -56.0490   -28.7788 H       
 175 H175          -6.3204   -56.2933   -26.6918 H       
 176 H176          -7.2102   -54.8009   -27.0784 H       
 177 H177          -8.0387   -55.8375   -29.1731 H       
 178 H178          -7.1490   -57.3299   -28.7865 H       
 179 H179          -8.4656   -57.5741   -26.6995 H       
 180 H180          -9.3553   -56.0818   -27.0861 H       
 181 H181         -10.1839   -57.1184   -29.1807 H       
 182 H182          -9.2941   -58.6108   -28.7941 H       
 183 H183         -10.6107   -58.8550   -26.7071 H       
 184 H184         -11.5005   -57.3627   -27.0938 H       
 185 H185         -12.3290   -58.3993   -29.1884 H       
 186 H186         -11.4393   -59.8916   -28.8018 H       
 187 H187         -12.7559   -60.1359   -26.7148 H       
 188 H188         -13.6456   -58.6435   -27.1014 H       
 189 H189         -14.4742   -59.6802   -29.1961 H       
 190 H190         -13.5844   -61.1725   -28.8094 H       
 191 H191         -14.9010   -61.4168   -26.7225 H       
 192 H192         -15.7908   -59.9244   -27.1091 H       
 193 H193         -16.6193   -60.9610   -29.2037 H       
 194 H194         -15.7296   -62.4534   -28.8171 H       
 195 H195         -17.0462   -62.6977   -26.7301 H       
 196 H196         -17.9359   -61.2053   -27.1168 H       
 197 H197         -18.7645   -62.2419   -29.2114 H       
 198 H198         -17.8747   -63.7343   -28.8248 H       
 199 H199         -19.1914   -63.9786   -26.7378 H       
 200 H200         -20.0811   -62.4862   -27.1244 H       
 201 H201         -20.2569   -63.9214   -28.1624 H       
 202 H202           2.2041    -6.3025    -3.1227 H       
 203 H203           1.2465    -8.5738    -3.3741 H       
 204 H204           2.0769    -9.4267    -0.7075 H       
 205 H205           2.3847    -6.3240    -0.7409 H       
 206 H206           3.4737    -8.1399    -4.2935 H       
 207 H207           4.5257    -6.8878    -3.5908 H       
 208 H208           4.3360    -8.4550    -2.7686 H       
 209 H209          -3.5591    -6.8237    -0.7849 H       
 210 H210          -1.2010    -6.0314    -0.4633 H       
 211 H211          -0.4458    -6.7715    -3.1854 H       
 212 H212          -3.9764    -8.5105    -2.5707 H       
 213 H213          -3.5482    -6.9223    -3.2507 H       
 214 H214          -2.3377    -8.2265    -3.2049 H       
 215 H215          -1.4783    -9.0413    -1.0328 H       
 216 H216          -1.8457    -8.1642     0.4718 H       
 217 H217          -4.2054    -8.9133     0.3323 H       
 218 H218          -3.8380    -9.7903    -1.1724 H       
 219 H219          -3.0944   -10.3037     0.3612 H       
 220 H220          -4.0484    -3.3574    -2.9512 H       
 221 H221          -2.5518    -2.4325    -2.6806 H       
 222 H222          -2.8916    -4.2260    -0.5255 H       
 223 H223          11.5836   -18.7201    -4.0580 H       
 224 H224          11.1164   -20.2563    -3.2899 H       
 225 H225           9.5675   -18.9065    -5.5456 H       
 226 H226           8.4025   -21.0206    -3.9021 H       
 227 H227          11.2494   -21.3959    -5.4881 H       
 228 H228          11.7166   -19.8597    -6.2563 H       
 229 H229          13.6553   -21.6860    -6.6673 H       
 230 H230          14.9293   -21.5313    -5.5830 H       
 231 H231          10.2826   -14.9103    -2.5249 H       
 232 H232           9.2556   -14.7479    -1.0803 H       
 233 H233           8.3268   -17.0325    -1.5339 H       
 234 H234          10.2731   -17.0209    -3.7149 H       
 235 H235          12.3738   -16.0760     0.2761 H       
 236 H236           5.1631   -14.7481    -3.5116 H       
 237 H237           6.3270   -13.4518    -3.8762 H       
 238 H238           7.0688   -14.6515    -1.4293 H       
 239 H239           1.8004   -11.5716    -0.2384 H       
 240 H240           1.7051   -12.6983    -1.6131 H       
 241 H241           4.1882   -11.0947    -0.8572 H       
 242 H242           3.8921   -12.3722    -3.4664 H       
 243 H243           3.4554   -15.2916     1.5433 H       
 244 H244           1.6566   -17.5455     3.5154 H       
 245 H245          -0.0742   -15.1674     1.6863 H       
 246 H246          -0.2432   -16.4545     2.7529 H       
 247 H247           3.5654   -14.0272    -0.6529 H       
 248 H248           3.6607   -12.9005     0.7218 H       
 249 H249           1.2271   -14.5787    -0.0388 H       
 250 H250           1.3224   -13.4520     1.3359 H       
 251 H251           5.8765   -28.1287    -8.3209 H       
 252 H252           4.9849   -27.7993    -9.8258 H       
 253 H253           7.6984   -29.1875    -9.6890 H       
 254 H254           6.6333   -28.0883   -12.1760 H       
 255 H255           4.9542   -30.2252   -10.3386 H       
 256 H256           5.8458   -30.5546    -8.8337 H       
 257 H257           3.4957   -31.8724    -8.7823 H       
 258 H258           2.3168   -31.0575    -7.9055 H       
 259 H259          10.5326   -24.3583    -8.8201 H       
 260 H260           8.1392   -24.5911    -9.5423 H       
 261 H261           7.7956   -27.0657    -8.0304 H       
 262 H262          11.7295   -26.4011    -8.0835 H       
 263 H263          10.4422   -25.9655    -6.9340 H       
 264 H264          10.1938   -27.3011    -8.0841 H       
 265 H265          10.0154   -26.8638   -10.4806 H       
 266 H266           9.8573   -25.2029   -11.1007 H       
 267 H267          11.4429   -25.8035   -10.5591 H       
 268 H268           6.5691   -21.9742    -4.6938 H       
 269 H269           6.2911   -21.8684    -6.4487 H       
 270 H270           8.5849   -23.4032    -5.1481 H       
 271 H271           8.5811   -22.7152    -7.9861 H       
 272 H272           6.1077   -24.3383    -6.5686 H       
 273 H273           6.3856   -24.4441    -4.8136 H       
 274 H274           2.7326   -24.4475    -5.1379 H       
 275 H275           3.8495   -35.0297   -19.6417 H       
 276 H276           4.1434   -33.7990   -18.3897 H       
 277 H277           3.2258   -35.8832   -17.4017 H       
 278 H278           5.6082   -37.4489   -18.0323 H       
 279 H279           5.6531   -33.2667   -20.5679 H       
 280 H280           7.2360   -33.8034   -20.3972 H       
 281 H281           5.6383   -34.2490   -12.5415 H       
 282 H282           4.0448   -34.2882   -13.3336 H       
 283 H283           6.7142   -34.3137   -14.8109 H       
 284 H284           4.1949   -33.6998   -16.1541 H       
 285 H285           4.7091   -36.4355   -14.4558 H       
 286 H286           7.1226   -36.2049   -12.6014 H       
 287 H287           6.7156   -37.6179   -13.6044 H       
 288 H288           7.1615   -36.0772   -14.3763 H       
 289 H289           3.4169   -36.4445   -12.3395 H       
 290 H290           4.5289   -37.8324   -12.4150 H       
 291 H291           4.9359   -36.4194   -11.4119 H       
 292 H292           7.3904   -30.1688   -15.2536 H       
 293 H293           7.4920   -28.7550   -14.1770 H       
 294 H294           5.4650   -30.0211   -13.6464 H       
 295 H295           6.8862   -32.4513   -12.8707 H       
 296 H296           9.5545   -29.9567   -14.2649 H       
 297 H297           1.9768   -42.8968   -26.2358 H       
 298 H298           3.5777   -42.4426   -25.6043 H       
 299 H299           3.5966   -44.5656   -24.2609 H       
 300 H300           0.7481   -45.0197   -24.7166 H       
 301 H301           2.0010   -44.8212   -28.0950 H       
 302 H302           3.7433   -46.0759   -29.4842 H       
 303 H303           5.6780   -44.0112   -26.3769 H       
 304 H304           1.1045   -39.5441   -21.8455 H       
 305 H305           1.7351   -41.9147   -21.3024 H       
 306 H306           3.7223   -42.0016   -23.4405 H       
 307 H307           1.5750   -38.7129   -24.1338 H       
 308 H308           3.0848   -39.0116   -23.2396 H       
 309 H309           2.5329   -40.1754   -24.4681 H       
 310 H310           0.5217   -41.5923   -24.0324 H       
 311 H311          -0.3593   -41.4379   -22.4934 H       
 312 H312          -0.4362   -40.1298   -23.6981 H       
 313 H313           5.6017   -39.6146   -17.8570 H       
 314 H314           4.0084   -40.4054   -17.7927 H       
 315 H315           5.1311   -38.9685   -20.2389 H       
 316 H316           2.2988   -39.6325   -19.9845 H       
 317 H317           4.6655   -41.8826   -19.6727 H       
 318 H318           6.2589   -41.0919   -19.7370 H       
 319 H319           6.5907   -43.7263   -19.2759 H       
 320 H320           6.8283   -44.0727   -17.6492 H       
 321 H321          -0.6325   -53.4982   -28.9925 H       
 322 H322          -1.5222   -52.0059   -29.3791 H       
 323 H323          -0.6864   -51.0951   -27.2866 H       
 324 H324           2.9935   -50.9096   -25.8917 H       
 325 H325           1.5303   -51.9172   -26.0013 H       
 326 H326           2.6833   -50.2817   -28.3045 H       
 327 H327           1.3849   -52.1622   -28.9778 H       
 328 H328           4.6413   -54.6961   -27.5345 H       
 329 H329           6.2137   -57.1843   -25.6529 H       
 330 H330           4.4023   -54.7327   -24.0082 H       
 331 H331           5.3363   -56.1125   -23.7922 H       
 332 H332           2.5800   -53.2444   -27.8138 H       
 333 H333           4.0433   -52.2368   -27.7042 H       
 334 H334           2.8850   -53.9440   -25.4545 H       
 335 H335           4.3483   -52.9365   -25.3449 H       
 336 H336           0.3745   -47.0374   -26.4635 H       
 337 H337           2.7326   -48.7226   -26.1068 H       
 338 H338           0.5703   -50.5195   -24.5578 H       
 339 H339          -1.2016   -52.1404   -25.1020 H       
 340 H340          -3.4725   -51.3502   -25.6326 H       
 341 H341          -3.9706   -48.9388   -25.6229 H       
 342 H342          -2.1976   -47.3176   -25.0833 H       
 343 H343           1.0941   -48.2834   -23.7730 H       
 344 H344          -0.0615   -46.9472   -23.9909 H       
@<TRIPOS>BOND
   1    1   35 am
   2    1  169 1
   3    1  170 1
   4    2  144 1
   5    2    3 2
   6    2    4 1
   7    4    5 1
   8    4  171 1
   9    4  172 1
  10    5    6 1
  11    5  173 1
  12    5  174 1
  13    6    7 1
  14    6  175 1
  15    6  176 1
  16    7    8 1
  17    7  177 1
  18    7  178 1
  19    8    9 1
  20    8  179 1
  21    8  180 1
  22    9   10 1
  23    9  181 1
  24    9  182 1
  25   10   11 1
  26   10  183 1
  27   10  184 1
  28   11   12 1
  29   11  185 1
  30   11  186 1
  31   12   13 1
  32   12  187 1
  33   12  188 1
  34   13   14 1
  35   13  189 1
  36   13  190 1
  37   14   15 1
  38   14  191 1
  39   14  192 1
  40   15   16 1
  41   15  193 1
  42   15  194 1
  43   16   17 1
  44   16  195 1
  45   16  196 1
  46   17   18 1
  47   17  197 1
  48   17  198 1
  49   18  199 1
  50   18  200 1
  51   18  201 1
  52   19   20 1
  53   19   24 1
  54   19   25 1
  55   19  202 1
  56   20   22 1
  57   20   21 1
  58   20  203 1
  59   21   23 2
  60   21   29 am
  61   22   61 am
  62   22  204 1
  63   24  205 1
  64   25  206 1
  65   25  207 1
  66   25  208 1
  67   26   27 1
  68   26   31 1
  69   26   32 1
  70   26  209 1
  71   27   29 1
  72   27   28 1
  73   27  210 1
  74   28   30 2
  75   28   36 am
  76   29  211 1
  77   31  212 1
  78   31  213 1
  79   31  214 1
  80   32   33 1
  81   32  215 1
  82   32  216 1
  83   33  217 1
  84   33  218 1
  85   33  219 1
  86   34   35 1
  87   34   36 1
  88   34  220 1
  89   34  221 1
  90   35   37 2
  91   36  222 1
  92   38   43 1
  93   38   39 1
  94   38  223 1
  95   38  224 1
  96   39   41 1
  97   39   40 1
  98   39  225 1
  99   40   42 2
 100   40   50 am
 101   41   88 am
 102   41  226 1
 103   43   44 1
 104   43  227 1
 105   43  228 1
 106   44   45 2
 107   44   46 am
 108   46  229 1
 109   46  230 1
 110   47   52 1
 111   47   48 1
 112   47  231 1
 113   47  232 1
 114   48   49 1
 115   48   50 1
 116   48  233 1
 117   49   51 2
 118   49   57 am
 119   50  234 1
 120   52   53 2
 121   52   54 1
 122   54  235 1
 123   55   56 1
 124   55   57 1
 125   55  236 1
 126   55  237 1
 127   56   58 2
 128   56   62 am
 129   57  238 1
 130   59   68 1
 131   59   60 1
 132   59  239 1
 133   59  240 1
 134   60   62 1
 135   60   61 1
 136   60  241 1
 137   61   63 2
 138   62  242 1
 139   64   69 1
 140   64   65 1
 141   64  243 1
 142   65   66 2
 143   65   67 1
 144   66  244 1
 145   67  245 1
 146   67  246 1
 147   68   69 1
 148   68  247 1
 149   68  248 1
 150   69  249 1
 151   69  250 1
 152   70   75 1
 153   70   71 1
 154   70  251 1
 155   70  252 1
 156   71   73 1
 157   71   72 1
 158   71  253 1
 159   72   74 2
 160   72   82 am
 161   73  113 am
 162   73  254 1
 163   75   76 1
 164   75  255 1
 165   75  256 1
 166   76   77 2
 167   76   78 am
 168   78  257 1
 169   78  258 1
 170   79   84 1
 171   79   85 1
 172   79   80 1
 173   79  259 1
 174   80   82 1
 175   80   81 1
 176   80  260 1
 177   81   83 2
 178   81   89 am
 179   82  261 1
 180   84  262 1
 181   84  263 1
 182   84  264 1
 183   85  265 1
 184   85  266 1
 185   85  267 1
 186   86   91 1
 187   86   87 1
 188   86  268 1
 189   86  269 1
 190   87   89 1
 191   87   88 1
 192   87  270 1
 193   88   90 2
 194   89  271 1
 195   91   92 1
 196   91  272 1
 197   91  273 1
 198   92   93 2
 199   92   94 1
 200   94  274 1
 201   95  100 1
 202   95   96 1
 203   95  275 1
 204   95  276 1
 205   96   98 1
 206   96   97 1
 207   96  277 1
 208   97   99 2
 209   97  106 am
 210   98  136 am
 211   98  278 1
 212  100  101 am
 213  100  102 2
 214  101  279 1
 215  101  280 1
 216  103  108 1
 217  103  104 1
 218  103  281 1
 219  103  282 1
 220  104  106 1
 221  104  105 1
 222  104  283 1
 223  105  107 2
 224  105  114 am
 225  106  284 1
 226  108  109 1
 227  108  110 1
 228  108  285 1
 229  109  286 1
 230  109  287 1
 231  109  288 1
 232  110  289 1
 233  110  290 1
 234  110  291 1
 235  111  116 1
 236  111  112 1
 237  111  292 1
 238  111  293 1
 239  112  114 1
 240  112  113 1
 241  112  294 1
 242  113  115 2
 243  114  295 1
 244  116  296 1
 245  117  122 1
 246  117  118 1
 247  117  297 1
 248  117  298 1
 249  118  119 1
 250  118  120 1
 251  118  299 1
 252  119  121 2
 253  119  130 am
 254  120  159 am
 255  120  300 1
 256  122  123 1
 257  122  126 2
 258  123  124 1
 259  123  301 1
 260  124  125 2
 261  124  302 1
 262  125  126 1
 263  126  303 1
 264  127  132 1
 265  127  133 1
 266  127  128 1
 267  127  304 1
 268  128  130 1
 269  128  129 1
 270  128  305 1
 271  129  131 2
 272  129  137 am
 273  130  306 1
 274  132  307 1
 275  132  308 1
 276  132  309 1
 277  133  310 1
 278  133  311 1
 279  133  312 1
 280  134  139 1
 281  134  135 1
 282  134  313 1
 283  134  314 1
 284  135  137 1
 285  135  136 1
 286  135  315 1
 287  136  138 2
 288  137  316 1
 289  139  140 1
 290  139  317 1
 291  139  318 1
 292  140  141 2
 293  140  142 am
 294  142  319 1
 295  142  320 1
 296  143  144 1
 297  143  145 1
 298  143  321 1
 299  143  322 1
 300  144  146 2
 301  145  150 1
 302  145  323 1
 303  147  156 1
 304  147  148 1
 305  147  324 1
 306  147  325 1
 307  148  150 1
 308  148  149 1
 309  148  326 1
 310  149  151 2
 311  149  160 am
 312  150  327 1
 313  152  157 1
 314  152  153 1
 315  152  328 1
 316  153  154 2
 317  153  155 1
 318  154  329 1
 319  155  330 1
 320  155  331 1
 321  156  157 1
 322  156  332 1
 323  156  333 1
 324  157  334 1
 325  157  335 1
 326  158  159 1
 327  158  160 1
 328  158  168 1
 329  158  336 1
 330  159  161 2
 331  160  337 1
 332  162  163 ar
 333  162  167 ar
 334  162  338 1
 335  163  164 ar
 336  163  339 1
 337  164  165 ar
 338  164  340 1
 339  165  166 ar
 340  165  341 1
 341  166  167 ar
 342  166  342 1
 343  167  168 1
 344  168  343 1
 345  168  344 1

#	End of record

