#	Name: ASD01940516
#	Creating user name:	WinNT
#	Creation time:	15. 06. 2019 20:12

#	Modifying user name:	WinNT
#	Modification time:	15. 06. 2019 20:12

#	Program:	/corina/corina34_cracker 3.40 0067  02.08.2006

@<TRIPOS>MOLECULE
ASD01940516
  41   43    0    0    0
SMALL
NO_CHARGES


@<TRIPOS>ATOM
   1 C1             0.7418     1.4177    -1.1486 C.ar    
   2 C2             0.7733     0.0116    -1.1571 C.ar    
   3 C3             1.1790    -0.6730     0.0047 C.ar    
   4 C4             1.5363     0.0948     1.1276 C.ar    
   5 C5             1.4743     1.4915     1.0443 C.ar    
   6 N6             1.0908     2.0941    -0.0562 N.ar    
   7 N7             0.0815     0.6510    -3.1499 N.2     
   8 N8             0.3119     1.8021    -2.3879 N.pl3   
   9 C9             0.3531    -0.4065    -2.4408 C.2     
  10 N10            1.2242    -2.0520     0.0404 N.pl3   
  11 C11            0.1338    -2.7750     0.5362 C.ar    
  12 C12            0.1273    -4.1643     0.4633 C.ar    
  13 C13           -0.9521    -4.8750     0.9543 C.ar    
  14 C14           -2.0244    -4.2053     1.5168 C.ar    
  15 C15           -2.0200    -2.8243     1.5898 C.ar    
  16 C16           -0.9414    -2.1081     1.1070 C.ar    
  17 I17           -3.6585    -5.2859     2.2592 I       
  18 F18            1.1739    -4.8179    -0.0869 F       
  19 C19            1.9688    -0.5603     2.3729 C.2     
  20 O20            1.9715    -1.7740     2.4523 O.2     
  21 N21            2.3616     0.1848     3.4250 N.am    
  22 O22            2.7776    -0.4454     4.6229 O.3     
  23 C23            3.1664     0.4647     5.6537 C.3     
  24 C24            3.5943    -0.3223     6.8941 C.3     
  25 C25            3.8912     0.6499     8.0376 C.3     
  26 O26            4.7688    -1.0798     6.5959 O.3     
  27 H27            1.7478     2.0850     1.9042 H       
  28 H28            0.1876     2.7161    -2.6877 H       
  29 H29            0.2667    -1.4299    -2.7747 H       
  30 H30            2.0118    -2.5198    -0.2782 H       
  31 H31           -0.9586    -5.9535     0.8984 H       
  32 H32           -2.8590    -2.3049     2.0289 H       
  33 H33           -0.9371    -1.0299     1.1694 H       
  34 H34            2.3594     1.1527     3.3617 H       
  35 H35            3.9999     1.0744     5.3048 H       
  36 H36            2.3246     1.1098     5.9053 H       
  37 H37            2.7918    -0.9977     7.1906 H       
  38 H38            2.9953     1.2277     8.2650 H       
  39 H39            4.1960     0.0893     8.9212 H       
  40 H40            4.6936     1.3254     7.7411 H       
  41 H41            5.5251    -0.5420     6.3241 H       
@<TRIPOS>BOND
   1    1    2 ar
   2    1    6 ar
   3    1    8 1
   4    2    3 ar
   5    2    9 1
   6    3    4 ar
   7    3   10 1
   8    4    5 ar
   9    4   19 1
  10    5    6 ar
  11    5   27 1
  12    7    8 1
  13    7    9 2
  14    8   28 1
  15    9   29 1
  16   10   11 1
  17   10   30 1
  18   11   12 ar
  19   11   16 ar
  20   12   13 ar
  21   12   18 1
  22   13   14 ar
  23   13   31 1
  24   14   15 ar
  25   14   17 1
  26   15   16 ar
  27   15   32 1
  28   16   33 1
  29   19   20 2
  30   19   21 am
  31   21   22 1
  32   21   34 1
  33   22   23 1
  34   23   24 1
  35   23   35 1
  36   23   36 1
  37   24   25 1
  38   24   26 1
  39   24   37 1
  40   25   38 1
  41   25   39 1
  42   25   40 1
  43   26   41 1

#	End of record

