#	Name: ASD01812819
#	Creating user name:	WinNT
#	Creation time:	15. 06. 2019 19:29

#	Modifying user name:	WinNT
#	Modification time:	15. 06. 2019 19:29

#	Program:	/corina/corina34_cracker 3.40 0067  02.08.2006

@<TRIPOS>MOLECULE
ASD01812819
  56   60    0    0    0
SMALL
NO_CHARGES


@<TRIPOS>ATOM
   1 N1            -0.0158     1.3147     0.0093 N.ar    
   2 C2             0.0021    -0.0041     0.0020 C.ar    
   3 C3             1.1989    -0.7033    -0.0127 C.ar    
   4 C4             2.3829    -0.0013    -0.0202 C.ar    
   5 C5             2.3448     1.3978    -0.0128 C.ar    
   6 C6             1.0955     2.0332     0.0025 C.ar    
   7 C7             3.8373    -0.3889    -0.0363 C.3     
   8 N8             4.5955     0.8684    -0.0373 N.am    
   9 C9             3.7280     1.8961    -0.0237 C.2     
  10 C10            6.0558     0.9844    -0.0504 C.3     
  11 C11            6.5432     1.0311    -1.4757 C.ar    
  12 C12            6.4763     2.2162    -2.1897 C.ar    
  13 C13            6.9229     2.2632    -3.4974 C.ar    
  14 C14            7.4401     1.1165    -4.0950 C.ar    
  15 C15            7.5046    -0.0724    -3.3711 C.ar    
  16 C16            7.0612    -0.1080    -2.0646 C.ar    
  17 O17            1.0255     3.3856     0.0100 O.3     
  18 O18            4.0429     3.0706    -0.0212 O.2     
  19 C19            7.9207     1.1605    -5.4986 C.2     
  20 N20            7.4058     1.8828    -6.4711 N.2     
  21 C21            9.0119     0.4414    -6.0238 C.2     
  22 C22            9.1227     0.7547    -7.3331 C.2     
  23 N23            8.1512     1.6435    -7.6326 N.pl3   
  24 C24            7.9140     2.2478    -8.9459 C.3     
  25 C25           -0.2795     3.9677     0.0251 C.3     
  26 C26           -0.1594     5.4699     0.0316 C.ar    
  27 F27            5.9737     3.3271    -1.6079 F       
  28 C28           -1.2995     6.2558     0.0462 C.ar    
  29 C29           -1.1877     7.6357     0.0521 C.ar    
  30 C30            0.0614     8.2273     0.0434 C.ar    
  31 C31            1.1987     7.4418     0.0283 C.ar    
  32 C32            1.0883     6.0636     0.0286 C.ar    
  33 F33           -2.5200     5.6764     0.0543 F       
  34 C34            9.8988    -0.5082    -5.2604 C.3     
  35 H35           -0.9309    -0.5480     0.0080 H       
  36 H36            1.2023    -1.7833    -0.0178 H       
  37 H37            4.0797    -0.9721     0.8522 H       
  38 H38            4.0624    -0.9631    -0.9351 H       
  39 H39            6.3524     1.8979     0.4651 H       
  40 H40            6.4932     0.1235     0.4552 H       
  41 H41            6.8704     3.1871    -4.0544 H       
  42 H42            7.9050    -0.9641    -3.8305 H       
  43 H43            7.1150    -1.0285    -1.5022 H       
  44 H44            9.8628     0.3682    -8.0181 H       
  45 H45            8.4839     3.1733    -9.0283 H       
  46 H46            8.2299     1.5559    -9.7267 H       
  47 H47            6.8517     2.4640    -9.0599 H       
  48 H48           -0.8289     3.6509    -0.8614 H       
  49 H49           -0.8123     3.6419     0.9185 H       
  50 H50           -2.0762     8.2496     0.0631 H       
  51 H51            0.1488     9.3038     0.0479 H       
  52 H52            2.1743     7.9050     0.0208 H       
  53 H53            1.9776     5.4508     0.0221 H       
  54 H54            9.4851    -1.5152    -5.3151 H       
  55 H55           10.8980    -0.5018    -5.6961 H       
  56 H56            9.9549    -0.1946    -4.2181 H       
@<TRIPOS>BOND
   1    1    2 ar
   2    1    6 ar
   3    2    3 ar
   4    2   35 1
   5    3    4 ar
   6    3   36 1
   7    4    7 1
   8    4    5 ar
   9    5    6 ar
  10    5    9 1
  11    6   17 1
  12    7    8 1
  13    7   37 1
  14    7   38 1
  15    8    9 am
  16    8   10 1
  17    9   18 2
  18   10   11 1
  19   10   39 1
  20   10   40 1
  21   11   12 ar
  22   11   16 ar
  23   12   13 ar
  24   12   27 1
  25   13   14 ar
  26   13   41 1
  27   14   15 ar
  28   14   19 1
  29   15   16 ar
  30   15   42 1
  31   16   43 1
  32   17   25 1
  33   19   21 1
  34   19   20 2
  35   20   23 1
  36   21   22 2
  37   21   34 1
  38   22   23 1
  39   22   44 1
  40   23   24 1
  41   24   45 1
  42   24   46 1
  43   24   47 1
  44   25   26 1
  45   25   48 1
  46   25   49 1
  47   26   28 ar
  48   26   32 ar
  49   28   29 ar
  50   28   33 1
  51   29   30 ar
  52   29   50 1
  53   30   31 ar
  54   30   51 1
  55   31   32 ar
  56   31   52 1
  57   32   53 1
  58   34   54 1
  59   34   55 1
  60   34   56 1

#	End of record

