#	Name: ASD03091441
#	Creating user name:	WinNT
#	Creation time:	15. 06. 2019 20:30

#	Modifying user name:	WinNT
#	Modification time:	15. 06. 2019 20:30

#	Program:	/corina/corina34_cracker 3.40 0067  02.08.2006

@<TRIPOS>MOLECULE
ASD03091441
  31   33    0    0    0
SMALL
NO_CHARGES


@<TRIPOS>ATOM
   1 C1            -0.0121     1.4541    -0.0364 C.3     
   2 C2             0.0681    -0.0721    -0.1102 C.3     
   3 N3             0.7672    -0.5848     1.0750 N.3     
   4 C4             0.0403    -0.2490     2.3060 C.3     
   5 C5            -0.0413     1.2717     2.4537 C.3     
   6 C6             1.3756     1.8505     2.5291 C.3     
   7 N7             2.0559     1.6014     1.2509 N.am    
   8 C8             1.4055     2.0348     0.0068 C.3     
   9 C9            -0.7602     1.8613     1.2365 C.3     
  10 C10            3.2546     0.9861     1.2201 C.2     
  11 O11            3.7542     0.6807     0.1541 O.2     
  12 S12            5.4292    -0.2756     2.6214 S.3     
  13 C13            3.9595     0.6837     2.4771 C.2     
  14 N14            3.5964     1.0831     3.6659 N.2     
  15 C15            4.3628     0.7041     4.6545 C.2     
  16 C16            5.4231    -0.0465     4.3167 C.2     
  17 H17           -0.5363     1.8351    -0.9128 H       
  18 H18           -0.9390    -0.4874    -0.1457 H       
  19 H19            0.6131    -0.3641    -1.0079 H       
  20 H20            0.9175    -1.5800     1.0039 H       
  21 H21           -0.9666    -0.6637     2.2576 H       
  22 H22            0.5651    -0.6695     3.1638 H       
  23 H23           -0.5868     1.5215     3.3638 H       
  24 H24            1.3228     2.9237     2.7120 H       
  25 H25            1.9256     1.3666     3.3362 H       
  26 H26            1.9751     1.6723    -0.8489 H       
  27 H27            1.3554     3.1233    -0.0195 H       
  28 H28           -0.7790     2.9483     1.3159 H       
  29 H29           -1.7808     1.4806     1.1967 H       
  30 H30            4.1561     0.9779     5.6786 H       
  31 H31            6.1549    -0.4428     5.0050 H       
@<TRIPOS>BOND
   1    1    2 1
   2    1    8 1
   3    1    9 1
   4    1   17 1
   5    2    3 1
   6    2   18 1
   7    2   19 1
   8    3    4 1
   9    3   20 1
  10    4    5 1
  11    4   21 1
  12    4   22 1
  13    5    6 1
  14    5    9 1
  15    5   23 1
  16    6    7 1
  17    6   24 1
  18    6   25 1
  19    7    8 1
  20    7   10 am
  21    8   26 1
  22    8   27 1
  23    9   28 1
  24    9   29 1
  25   10   11 2
  26   10   13 1
  27   12   13 1
  28   12   16 1
  29   13   14 2
  30   14   15 1
  31   15   16 2
  32   15   30 1
  33   16   31 1

#	End of record

