#	Name: ASD02560499
#	Creating user name:	WinNT
#	Creation time:	15. 06. 2019 20:25

#	Modifying user name:	WinNT
#	Modification time:	15. 06. 2019 20:25

#	Program:	/corina/corina34_cracker 3.40 0067  02.08.2006

@<TRIPOS>MOLECULE
ASD02560499
  43   46    0    0    0
SMALL
NO_CHARGES


@<TRIPOS>ATOM
   1 C1            -0.1117     0.9201    -1.0689 C.2     
   2 C2            -0.2408    -0.4807    -1.0957 C.2     
   3 C3            -1.4201    -1.0618    -0.7947 C.2     
   4 N4            -2.5073    -0.2993    -0.4597 N.pl3   
   5 C5            -2.4105     1.0729    -0.4253 C.2     
   6 C6            -1.1796     1.6908    -0.7325 C.2     
   7 C7            -3.7906    -0.6255    -0.1190 C.2     
   8 C8            -4.4544     0.5600     0.1176 C.2     
   9 N9            -3.5864     1.5696    -0.0776 N.2     
  10 C10           -5.8745     0.6979     0.5173 C.ar    
  11 N11           -4.3260    -1.9108    -0.0286 N.3     
  12 C12           -3.2782    -2.9293    -0.1793 C.3     
  13 C13           -6.8641    -0.0153    -0.1577 C.ar    
  14 C14           -3.7211    -4.2438     0.4870 C.3     
  15 C15           -8.1852     0.1168     0.2194 C.ar    
  16 C16           -8.5289     0.9547     1.2649 C.ar    
  17 C17           -7.5522     1.6658     1.9391 C.ar    
  18 C18           -6.2264     1.5379     1.5751 C.ar    
  19 Cl19          -5.0017     2.4308     2.4217 Cl      
  20 Br20           1.2464    -1.5538    -1.5566 Br      
  21 C21            1.2085     1.5639    -1.4062 C.3     
  22 C22           -3.7553    -5.3120    -0.6255 C.3     
  23 C23           -2.7848    -4.7689    -1.7035 C.3     
  24 C24           -3.0587    -3.2447    -1.6733 C.3     
  25 H25           -1.5079    -2.1380    -0.8184 H       
  26 H26           -1.0892     2.7667    -0.7091 H       
  27 H27           -4.8276    -2.0335     0.8383 H       
  28 H28           -2.3490    -2.5779     0.2694 H       
  29 H29           -6.5975    -0.6697    -0.9745 H       
  30 H30           -3.0065    -4.5307     1.2583 H       
  31 H31           -4.7136    -4.1259     0.9221 H       
  32 H32           -8.9524    -0.4351    -0.3033 H       
  33 H33           -9.5642     1.0544     1.5560 H       
  34 H34           -7.8267     2.3188     2.7543 H       
  35 H35            1.9395     0.7910    -1.6435 H       
  36 H36            1.0828     2.2214    -2.2664 H       
  37 H37            1.5579     2.1449    -0.5528 H       
  38 H38           -3.4042    -6.2710    -0.2444 H       
  39 H39           -4.7622    -5.4075    -1.0319 H       
  40 H40           -1.7501    -4.9809    -1.4339 H       
  41 H41           -3.0230    -5.1848    -2.6825 H       
  42 H42           -3.9530    -3.0063    -2.2489 H       
  43 H43           -2.1991    -2.6950    -2.0569 H       
@<TRIPOS>BOND
   1    1    2 1
   2    1   21 1
   3    1    6 2
   4    2    3 2
   5    2   20 1
   6    3    4 1
   7    3   25 1
   8    4    5 1
   9    4    7 1
  10    5    6 1
  11    5    9 2
  12    6   26 1
  13    7    8 2
  14    7   11 1
  15    8    9 1
  16    8   10 1
  17   10   13 ar
  18   10   18 ar
  19   11   12 1
  20   11   27 1
  21   12   14 1
  22   12   24 1
  23   12   28 1
  24   13   15 ar
  25   13   29 1
  26   14   22 1
  27   14   30 1
  28   14   31 1
  29   15   16 ar
  30   15   32 1
  31   16   17 ar
  32   16   33 1
  33   17   18 ar
  34   17   34 1
  35   18   19 1
  36   21   35 1
  37   21   36 1
  38   21   37 1
  39   22   23 1
  40   22   38 1
  41   22   39 1
  42   23   24 1
  43   23   40 1
  44   23   41 1
  45   24   42 1
  46   24   43 1

#	End of record

