#	Name: ASD01150078
#	Creating user name:	WinNT
#	Creation time:	15. 06. 2019 19:03

#	Modifying user name:	WinNT
#	Modification time:	15. 06. 2019 19:03

#	Program:	/corina/corina34_cracker 3.40 0067  02.08.2006

@<TRIPOS>MOLECULE
ASD01150078
  32   32    0    0    0
SMALL
NO_CHARGES


@<TRIPOS>ATOM
   1 C1             0.3073     1.6859     0.0789 C.2     
   2 C2             0.5334     0.3418    -0.1866 C.2     
   3 N3            -0.6485    -0.2109    -0.4836 N.2     
   4 C4            -1.5909     0.6932    -0.4214 C.2     
   5 N5            -1.0602     1.8787    -0.0738 N.pl3   
   6 C6            -1.7862     3.1390     0.1018 C.3     
   7 C7            -3.0520     0.4431    -0.6930 C.3     
   8 C8            -3.7525     0.0486     0.6087 C.3     
   9 C9             1.2698     2.6573     0.4372 C.2     
  10 O10            0.9110     3.9537     0.5495 O.3     
  11 N11            1.7584    -0.3079    -0.1510 N.pl3   
  12 O12            2.4223     2.3246     0.6443 O.2     
  13 C13            1.9350     4.8810     0.9149 C.3     
  14 C14           -1.5596     3.6646     1.5207 C.3     
  15 C15           -1.2760     4.1668    -0.9103 C.3     
  16 H16           -2.8512     2.9700    -0.0573 H       
  17 H17           -3.5079     1.3498    -1.0907 H       
  18 H18           -3.1537    -0.3633    -1.4193 H       
  19 H19           -3.2965    -0.8581     1.0063 H       
  20 H20           -3.6507     0.8551     1.3349 H       
  21 H21           -4.8093    -0.1322     0.4122 H       
  22 H22            2.5623     0.1848     0.0766 H       
  23 H23            1.8111    -1.2550    -0.3538 H       
  24 H24            2.3450     4.6054     1.8865 H       
  25 H25            2.7276     4.8603     0.1670 H       
  26 H26            1.5135     5.8847     0.9699 H       
  27 H27           -0.4929     3.6579     1.7447 H       
  28 H28           -1.9403     4.6832     1.5959 H       
  29 H29           -2.0843     3.0272     2.2324 H       
  30 H30           -1.6191     3.8949    -1.9086 H       
  31 H31           -1.6593     5.1536    -0.6506 H       
  32 H32           -0.1863     4.1840    -0.8927 H       
@<TRIPOS>BOND
   1    1    2 2
   2    1    9 1
   3    1    5 1
   4    2    3 1
   5    2   11 1
   6    3    4 2
   7    4    5 1
   8    4    7 1
   9    5    6 1
  10    6   14 1
  11    6   15 1
  12    6   16 1
  13    7    8 1
  14    7   17 1
  15    7   18 1
  16    8   19 1
  17    8   20 1
  18    8   21 1
  19    9   10 1
  20    9   12 2
  21   10   13 1
  22   11   22 1
  23   11   23 1
  24   13   24 1
  25   13   25 1
  26   13   26 1
  27   14   27 1
  28   14   28 1
  29   14   29 1
  30   15   30 1
  31   15   31 1
  32   15   32 1

#	End of record

