#	Name: ASD01820171
#	Creating user name:	WinNT
#	Creation time:	15. 06. 2019 19:36

#	Modifying user name:	WinNT
#	Modification time:	15. 06. 2019 19:36

#	Program:	/corina/corina34_cracker 3.40 0067  02.08.2006

@<TRIPOS>MOLECULE
ASD01820171
  80   83    0    0    0
SMALL
NO_CHARGES


@<TRIPOS>ATOM
   1 C1            -0.0170     1.4014     0.0097 C.ar    
   2 C2             0.0021    -0.0041     0.0020 C.ar    
   3 C3            -1.4183    -0.4294     0.0133 C.2     
   4 N4            -2.1946     0.6689     0.0266 N.am    
   5 C5            -1.4483     1.7878     0.0314 C.2     
   6 C6            -3.6594     0.6489     0.0405 C.3     
   7 C7            -4.1556     0.6343     1.4877 C.3     
   8 C8            -5.6854     0.6134     1.5022 C.3     
   9 N9            -6.1617     0.5994     2.8918 N.4     
  10 C10           -7.6305     0.5794     2.9057 C.3     
  11 C11           -8.1267     0.5647     4.3529 C.3     
  12 C12           -9.6565     0.5439     4.3674 C.3     
  13 C13          -10.1526     0.5292     5.8147 C.3     
  14 C14          -11.6824     0.5084     5.8292 C.3     
  15 C15          -12.1786     0.4937     7.2764 C.3     
  16 N16          -13.6474     0.4737     7.2904 N.4     
  17 C17          -14.1237     0.4596     8.6799 C.3     
  18 C18          -15.6535     0.4388     8.6944 C.3     
  19 N19          -17.6145     0.4042    10.1555 N.am    
  20 O20           -1.8752     2.9242     0.0430 O.2     
  21 O21           -1.8142    -1.5769     0.0103 O.2     
  22 C22          -16.1497     0.4241    10.1417 C.3     
  23 C23          -18.3608    -0.7149    10.1567 C.2     
  24 C24          -19.7921    -0.3284    10.1730 C.ar    
  25 C25          -19.8112     1.0771    10.1810 C.ar    
  26 C26          -18.3908     1.5024    10.1747 C.2     
  27 N27          -20.9296    -1.0034    10.1804 N.ar    
  28 C28          -22.0783    -0.3510    10.1954 C.ar    
  29 C29          -22.0971     1.0376    10.2029 C.ar    
  30 N30          -20.9665     1.7210    10.1963 N.ar    
  31 O31          -17.9338    -1.8512    10.1461 O.2     
  32 O32          -17.9948     2.6499    10.1791 O.2     
  33 C33          -14.1599     1.6700     6.6091 C.3     
  34 C34          -14.1273    -0.7286     6.5960 C.3     
  35 C35           -5.6493    -0.5970     3.5730 C.3     
  36 C36           -5.6818     1.8016     3.5862 C.3     
  37 N37            1.1205     2.0764     0.0025 N.ar    
  38 C38            2.2692     1.4241    -0.0120 C.ar    
  39 C39            2.2880     0.0355    -0.0201 C.ar    
  40 N40            1.1574    -0.6479    -0.0125 N.ar    
  41 H41           -4.0397     1.5366    -0.4650 H       
  42 H42           -4.0156    -0.2431    -0.4748 H       
  43 H43           -3.7753    -0.2534     1.9932 H       
  44 H44           -3.7995     1.5263     2.0030 H       
  45 H45           -6.0656     1.5011     0.9968 H       
  46 H46           -6.0415    -0.2786     0.9870 H       
  47 H47           -8.0108     1.4670     2.4002 H       
  48 H48           -7.9867    -0.3127     2.3905 H       
  49 H49           -7.7464    -0.3230     4.8584 H       
  50 H50           -7.7706     1.4568     4.8682 H       
  51 H51          -10.0367     1.4315     3.8620 H       
  52 H52          -10.0126    -0.3482     3.8522 H       
  53 H53           -9.7724    -0.3585     6.3202 H       
  54 H54           -9.7965     1.4213     6.3299 H       
  55 H55          -12.0627     1.3961     5.3237 H       
  56 H56          -12.0385    -0.3837     5.3140 H       
  57 H57          -11.7983    -0.3940     7.7819 H       
  58 H58          -11.8225     1.3858     7.7917 H       
  59 H59          -13.7435    -0.4281     9.1854 H       
  60 H60          -13.7676     1.3517     9.1951 H       
  61 H61          -16.0338     1.3265     8.1889 H       
  62 H62          -16.0097    -0.4533     8.1792 H       
  63 H63          -15.7694    -0.4636    10.6471 H       
  64 H64          -15.7936     1.3162    10.6569 H       
  65 H65          -23.0080    -0.9006    10.2015 H       
  66 H66          -23.0413     1.5618    10.2148 H       
  67 H67          -13.8064     1.6805     5.5781 H       
  68 H68          -15.2497     1.6552     6.6195 H       
  69 H69          -13.8037     2.5621     7.1244 H       
  70 H70          -13.7471    -1.6163     7.1014 H       
  71 H71          -15.2172    -0.7434     6.6063 H       
  72 H72          -13.7739    -0.7181     5.5649 H       
  73 H73           -4.5594    -0.5822     3.5627 H       
  74 H74           -6.0027    -0.6075     4.6040 H       
  75 H75           -6.0054    -1.4891     3.0578 H       
  76 H76           -6.0621     2.6893     3.0807 H       
  77 H77           -6.0353     1.7912     4.6172 H       
  78 H78           -4.5919     1.8164     3.5758 H       
  79 H79            3.1988     1.9737    -0.0179 H       
  80 H80            3.2322    -0.4887    -0.0326 H       
@<TRIPOS>BOND
   1    1    2 ar
   2    1   37 ar
   3    1    5 1
   4    2    3 1
   5    2   40 ar
   6    3    4 am
   7    3   21 2
   8    4    5 am
   9    4    6 1
  10    5   20 2
  11    6    7 1
  12    6   41 1
  13    6   42 1
  14    7    8 1
  15    7   43 1
  16    7   44 1
  17    8    9 1
  18    8   45 1
  19    8   46 1
  20    9   10 1
  21    9   35 1
  22    9   36 1
  23   10   11 1
  24   10   47 1
  25   10   48 1
  26   11   12 1
  27   11   49 1
  28   11   50 1
  29   12   13 1
  30   12   51 1
  31   12   52 1
  32   13   14 1
  33   13   53 1
  34   13   54 1
  35   14   15 1
  36   14   55 1
  37   14   56 1
  38   15   16 1
  39   15   57 1
  40   15   58 1
  41   16   17 1
  42   16   33 1
  43   16   34 1
  44   17   18 1
  45   17   59 1
  46   17   60 1
  47   18   22 1
  48   18   61 1
  49   18   62 1
  50   19   23 am
  51   19   22 1
  52   19   26 am
  53   22   63 1
  54   22   64 1
  55   23   24 1
  56   23   31 2
  57   24   25 ar
  58   24   27 ar
  59   25   26 1
  60   25   30 ar
  61   26   32 2
  62   27   28 ar
  63   28   29 ar
  64   28   65 1
  65   29   30 ar
  66   29   66 1
  67   33   67 1
  68   33   68 1
  69   33   69 1
  70   34   70 1
  71   34   71 1
  72   34   72 1
  73   35   73 1
  74   35   74 1
  75   35   75 1
  76   36   76 1
  77   36   77 1
  78   36   78 1
  79   37   38 ar
  80   38   39 ar
  81   38   79 1
  82   39   40 ar
  83   39   80 1

#	End of record

