#	Name: ASD01880368
#	Creating user name:	WinNT
#	Creation time:	15. 06. 2019 19:40

#	Modifying user name:	WinNT
#	Modification time:	15. 06. 2019 19:40

#	Program:	/corina/corina34_cracker 3.40 0067  02.08.2006

@<TRIPOS>MOLECULE
ASD01880368
  44   45    0    0    0
SMALL
NO_CHARGES


@<TRIPOS>ATOM
   1 C1            -1.1565     0.8406    -0.5179 C.ar    
   2 N2            -0.9655    -0.4656    -0.4731 N.ar    
   3 C3            -1.9858    -1.3097    -0.5079 C.ar    
   4 C4            -3.3031    -0.7910    -0.5949 C.ar    
   5 C5            -3.4490     0.5983    -0.6393 C.ar    
   6 N6            -2.3556     1.3698    -0.5935 N.ar    
   7 C7            -4.5821    -1.4736    -0.6488 C.2     
   8 C8            -5.6311    -0.6782    -0.7283 C.2     
   9 S9            -5.1545     1.0092    -0.7456 S.3     
  10 C10           -7.0580    -1.1585    -0.7958 C.3     
  11 N11           -1.7701    -2.6752    -0.4606 N.pl3   
  12 C12           -0.4046    -3.1984    -0.3713 C.3     
  13 C13           -0.4457    -4.7274    -0.3340 C.3     
  14 C14            0.0414     1.7539    -0.4745 C.3     
  15 C15            0.9804    -5.2737    -0.2408 C.3     
  16 C16            0.9393    -6.8027    -0.2035 C.3     
  17 C17            3.3931    -9.8653     3.0022 C.3     
  18 C18            2.0855    -9.1169     3.0353 C.2     
  19 C19            1.7721    -8.2832     2.0493 C.2     
  20 C20            2.7016    -8.0907     0.9253 C.2     
  21 C21            2.3439    -7.3409    -0.1117 C.2     
  22 H22           -4.6685    -2.5499    -0.6259 H       
  23 H23           -7.4595    -1.2475     0.2136 H       
  24 H24           -7.6553    -0.4444    -1.3628 H       
  25 H25           -7.0912    -2.1309    -1.2871 H       
  26 H26           -2.5229    -3.2864    -0.4866 H       
  27 H27            0.1673    -2.8713    -1.2397 H       
  28 H28            0.0687    -2.8254     0.5370 H       
  29 H29           -1.0176    -5.0544     0.5343 H       
  30 H30           -0.9190    -5.1003    -1.2423 H       
  31 H31            0.3878     1.9474    -1.4897 H       
  32 H32           -0.2362     2.6951     0.0002 H       
  33 H33            0.8392     1.2800     0.0975 H       
  34 H34            1.5523    -4.9467    -1.1091 H       
  35 H35            1.4537    -4.9008     0.6675 H       
  36 H36            0.3674    -7.1298     0.6648 H       
  37 H37            0.4660    -7.1757    -1.1118 H       
  38 H38            3.4329   -10.4878     2.1083 H       
  39 H39            4.2187    -9.1538     2.9865 H       
  40 H40            3.4734   -10.4957     3.8878 H       
  41 H41            1.4031    -9.2581     3.8604 H       
  42 H42            0.8350    -7.7468     2.0730 H       
  43 H43            3.6747    -8.5589     0.9430 H       
  44 H44            3.0598    -7.1171    -0.8887 H       
@<TRIPOS>BOND
   1    1    2 ar
   2    1   14 1
   3    1    6 ar
   4    2    3 ar
   5    3    4 ar
   6    3   11 1
   7    4    5 ar
   8    4    7 1
   9    5    6 ar
  10    5    9 1
  11    7    8 2
  12    7   22 1
  13    8    9 1
  14    8   10 1
  15   10   23 1
  16   10   24 1
  17   10   25 1
  18   11   12 1
  19   11   26 1
  20   12   13 1
  21   12   27 1
  22   12   28 1
  23   13   15 1
  24   13   29 1
  25   13   30 1
  26   14   31 1
  27   14   32 1
  28   14   33 1
  29   15   16 1
  30   15   34 1
  31   15   35 1
  32   16   21 1
  33   16   36 1
  34   16   37 1
  35   17   18 1
  36   17   38 1
  37   17   39 1
  38   17   40 1
  39   18   19 2
  40   18   41 1
  41   19   20 1
  42   19   42 1
  43   20   21 2
  44   20   43 1
  45   21   44 1

#	End of record

