#	Name: ASD02198790
#	Creating user name:	WinNT
#	Creation time:	15. 06. 2019 20:20

#	Modifying user name:	WinNT
#	Modification time:	15. 06. 2019 20:20

#	Program:	/corina/corina34_cracker 3.40 0067  02.08.2006

@<TRIPOS>MOLECULE
ASD02198790
  50   54    0    0    0
SMALL
NO_CHARGES


@<TRIPOS>ATOM
   1 C1            -0.0433     1.5017    -0.1148 C.2     
   2 C2            -0.0730     0.1621     0.0977 C.2     
   3 N3             1.0715    -0.5396     0.2600 N.pl3   
   4 N4             2.2360    -0.0049     0.2259 N.2     
   5 C5             2.4076     1.2845     0.0277 C.2     
   6 C6             1.2217     2.1358    -0.1604 C.2     
   7 C7             0.9801    -1.9174     0.4764 C.ar    
   8 C8             1.5827    -2.4884     1.5974 C.ar    
   9 C9             1.4914    -3.8521     1.8111 C.ar    
  10 C10            0.7972    -4.6521     0.9052 C.ar    
  11 C11            0.1964    -4.0765    -0.2142 C.ar    
  12 C12            0.2842    -2.7166    -0.4224 C.ar    
  13 C13            3.7645     1.8667    -0.0051 C.2     
  14 N14            4.3064     2.6068    -1.0182 N.pl3   
  15 N15            5.6085     2.9579    -0.6407 N.2     
  16 C16            5.8525     2.4581     0.5445 C.2     
  17 C17            4.7204     1.7711     0.9825 C.2     
  18 C18            3.6730     2.9521    -2.2188 C.ar    
  19 C19            3.8071     4.2354    -2.7322 C.ar    
  20 C20            3.1817     4.5727    -3.9164 C.ar    
  21 C21            2.4221     3.6342    -4.5906 C.ar    
  22 C22            2.2866     2.3554    -4.0820 C.ar    
  23 C23            2.9142     2.0103    -2.9011 C.ar    
  24 O24            1.3246     3.3388    -0.3482 O.2     
  25 C25            0.6980    -6.1142     1.1311 C.ar    
  26 N26            1.2705    -6.6649     2.1976 N.ar    
  27 C27           -0.0012    -6.9158     0.2287 C.ar    
  28 N28           -0.0865    -8.2168     0.4345 N.ar    
  29 C29            0.4892    -8.7597     1.4935 C.ar    
  30 C30            1.1795    -7.9671     2.3946 C.ar    
  31 O31            2.2594    -1.7056     2.4787 O.3     
  32 C32            2.8513    -2.3578     3.6040 C.3     
  33 H33           -0.9547     2.0653    -0.2493 H       
  34 H34           -1.0228    -0.3503     0.1380 H       
  35 H35            1.9576    -4.2961     2.6782 H       
  36 H36           -0.3413    -4.6962    -0.9165 H       
  37 H37           -0.1818    -2.2728    -1.2897 H       
  38 H38            6.7761     2.5641     1.0941 H       
  39 H39            4.6145     1.2517     1.9235 H       
  40 H40            4.3996     4.9690    -2.2057 H       
  41 H41            3.2857     5.5706    -4.3162 H       
  42 H42            1.9335     3.9006    -5.5162 H       
  43 H43            1.6927     1.6247    -4.6109 H       
  44 H44            2.8082     1.0113    -2.5046 H       
  45 H45           -0.4721    -6.4728    -0.6364 H       
  46 H46            0.4170    -9.8245     1.6587 H       
  47 H47            1.6481    -8.4155     3.2581 H       
  48 H48            2.0745    -2.8519     4.1876 H       
  49 H49            3.5717    -3.0986     3.2572 H       
  50 H50            3.3591    -1.6204     4.2257 H       
@<TRIPOS>BOND
   1    1    2 2
   2    1    6 1
   3    1   33 1
   4    2    3 1
   5    2   34 1
   6    3    4 1
   7    3    7 1
   8    4    5 2
   9    5    6 1
  10    5   13 1
  11    6   24 2
  12    7    8 ar
  13    7   12 ar
  14    8    9 ar
  15    8   31 1
  16    9   10 ar
  17    9   35 1
  18   10   11 ar
  19   10   25 1
  20   11   12 ar
  21   11   36 1
  22   12   37 1
  23   13   14 1
  24   13   17 2
  25   14   15 1
  26   14   18 1
  27   15   16 2
  28   16   17 1
  29   16   38 1
  30   17   39 1
  31   18   19 ar
  32   18   23 ar
  33   19   20 ar
  34   19   40 1
  35   20   21 ar
  36   20   41 1
  37   21   22 ar
  38   21   42 1
  39   22   23 ar
  40   22   43 1
  41   23   44 1
  42   25   26 ar
  43   25   27 ar
  44   26   30 ar
  45   27   28 ar
  46   27   45 1
  47   28   29 ar
  48   29   30 ar
  49   29   46 1
  50   30   47 1
  51   31   32 1
  52   32   48 1
  53   32   49 1
  54   32   50 1

#	End of record

