#	Name: ASD01411053
#	Creating user name:	WinNT
#	Creation time:	15. 06. 2019 19:19

#	Modifying user name:	WinNT
#	Modification time:	15. 06. 2019 19:19

#	Program:	/corina/corina34_cracker 3.40 0067  02.08.2006

@<TRIPOS>MOLECULE
ASD01411053
  41   44    0    0    0
SMALL
NO_CHARGES


@<TRIPOS>ATOM
   1 C1             0.6371     0.2659    -1.1968 C.ar    
   2 C2             0.0033    -0.0061     0.0017 C.ar    
   3 C3             1.8238     0.9721    -1.2075 C.ar    
   4 C4             0.5556     0.4282     1.1935 C.ar    
   5 C5             2.3811     1.4097    -0.0131 C.ar    
   6 C6             1.7432     1.1356     1.1889 C.ar    
   7 Br7           -0.3151     0.0545     2.8300 Br      
   8 N8             3.5852     2.1259    -0.0212 N.am    
   9 C9             4.7443     1.4465     0.0614 C.2     
  10 C10            3.5406     3.4682    -0.1169 C.2     
  11 C11            6.0256     2.1588     0.0560 C.ar    
  12 O12            4.7284     0.2324     0.1415 O.2     
  13 C13            4.7830     4.2528    -0.1289 C.ar    
  14 O14            2.4666     4.0341    -0.1941 O.2     
  15 C15            6.0177     3.5702    -0.0379 C.ar    
  16 C16            7.2426     1.4879     0.1398 C.ar    
  17 C17            4.7807     5.6376    -0.2255 C.ar    
  18 C18            7.2291     4.2899    -0.0465 C.ar    
  19 C19            8.4316     2.1933     0.1319 C.ar    
  20 C20            5.9793     6.3380    -0.2328 C.ar    
  21 C21            8.4485     3.5778     0.0405 C.ar    
  22 C22            7.1899     5.6884    -0.1406 C.ar    
  23 N23            9.6516     4.2582     0.0338 N.pl3   
  24 C24           10.9124     3.5177     0.1241 C.3     
  25 H25            9.6611     5.2260    -0.0307 H       
  26 C26           12.0844     4.5008     0.0961 C.3     
  27 O27           12.0444     5.3231     1.2641 O.3     
  28 H28            0.2059    -0.0783    -2.1253 H       
  29 H29           -0.9249    -0.5583     0.0074 H       
  30 H30            2.3183     1.1838    -2.1441 H       
  31 H31            2.1740     1.4748     2.1193 H       
  32 H32            7.2579     0.4104     0.2118 H       
  33 H33            3.8444     6.1713    -0.2956 H       
  34 H34            9.3660     1.6559     0.1984 H       
  35 H35            5.9617     7.4152    -0.3085 H       
  36 H36            8.1091     6.2553    -0.1484 H       
  37 H37           10.9353     2.9515     1.0552 H       
  38 H38           10.9927     2.8326    -0.7198 H       
  39 H39           13.0229     3.9469     0.0737 H       
  40 H40           12.0114     5.1280    -0.7924 H       
  41 H41           12.7599     5.9718     1.3132 H       
@<TRIPOS>BOND
   1    1    2 ar
   2    1    3 ar
   3    1   28 1
   4    2    4 ar
   5    2   29 1
   6    3    5 ar
   7    3   30 1
   8    4    6 ar
   9    4    7 1
  10    5    6 ar
  11    5    8 1
  12    6   31 1
  13    8   10 am
  14    8    9 am
  15    9   11 1
  16    9   12 2
  17   10   13 1
  18   10   14 2
  19   11   15 ar
  20   11   16 ar
  21   13   17 ar
  22   13   15 ar
  23   15   18 ar
  24   16   19 ar
  25   16   32 1
  26   17   20 ar
  27   17   33 1
  28   18   21 ar
  29   18   22 ar
  30   19   21 ar
  31   19   34 1
  32   20   22 ar
  33   20   35 1
  34   21   23 1
  35   22   36 1
  36   23   25 1
  37   23   24 1
  38   24   26 1
  39   24   37 1
  40   24   38 1
  41   26   27 1
  42   26   39 1
  43   26   40 1
  44   27   41 1

#	End of record

