#	Name: ASD02500386
#	Creating user name:	WinNT
#	Creation time:	15. 06. 2019 20:22

#	Modifying user name:	WinNT
#	Modification time:	15. 06. 2019 20:22

#	Program:	/corina/corina34_cracker 3.40 0067  02.08.2006

@<TRIPOS>MOLECULE
ASD02500386
  71   75    0    0    0
SMALL
NO_CHARGES


@<TRIPOS>ATOM
   1 C1             0.9957    -0.0353    -1.2593 C.2     
   2 C2             1.2519    -1.5199    -1.2234 C.3     
   3 O3             0.9205     0.5394    -2.3195 O.2     
   4 O4             0.8455     0.6478    -0.1135 O.3     
   5 C5             0.7169     1.9981    -0.2120 C.ar    
   6 C6            -0.5143     2.5597    -0.5383 C.ar    
   7 C7            -0.6400     3.9358    -0.6374 C.ar    
   8 C8             0.4561     4.7481    -0.4125 C.ar    
   9 C9             1.6786     4.1905    -0.0885 C.ar    
  10 C10            1.8097     2.8181     0.0177 C.ar    
  11 C11            0.3176     6.2448    -0.5212 C.3     
  12 N12           -0.0534     6.7986     0.7878 N.3     
  13 C13            0.0330     8.2651     0.7826 C.3     
  14 C14           -0.5317     8.8114     2.0982 C.3     
  15 N15            0.1624     8.1514     3.2144 N.am    
  16 C16            0.2366     6.6825     3.2167 C.3     
  17 C17            0.7711     6.2200     1.8570 C.3     
  18 C18            0.7154     8.8735     4.2090 C.2     
  19 C19            1.3000     8.1911     5.3789 C.ar    
  20 C20            2.4127     8.7378     6.0250 C.ar    
  21 C21            2.9558     8.0988     7.1160 C.ar    
  22 C22            2.3983     6.9092     7.5766 C.ar    
  23 C23            1.2905     6.3620     6.9351 C.ar    
  24 C24            0.7390     6.9994     5.8474 C.ar    
  25 O25            0.7324    10.0875     4.1420 O.2     
  26 S26            1.9652     5.6973     9.8836 S.o2    
  27 O27            0.9274     4.9681     9.2429 O.2     
  28 O28            2.8204     5.1308    10.8669 O.2     
  29 N29            2.9494     6.2659     8.6793 N.am    
  30 N30            3.3077     7.9118    11.4060 N.ar    
  31 C31            4.0403     8.7955    12.0389 C.ar    
  32 C32            3.4762     9.9145    12.6481 C.ar    
  33 C33            2.1260    10.1121    12.5938 C.ar    
  34 C34            1.3424     9.1612    11.9129 C.ar    
  35 C35           -0.0516     9.2969    11.8158 C.ar    
  36 C36           -0.7745     8.3553    11.1488 C.ar    
  37 C37           -0.1490     7.2585    10.5600 C.ar    
  38 C38            1.2001     7.0952    10.6355 C.ar    
  39 C39            1.9807     8.0457    11.3159 C.ar    
  40 O40           -1.5911     1.7594    -0.7597 O.3     
  41 C41           -2.8223     2.4051    -1.0901 C.3     
  42 H42            2.3260    -1.7025    -1.1915 H       
  43 H43            0.7841    -1.9480    -0.3369 H       
  44 H44            0.8310    -1.9829    -2.1159 H       
  45 H45           -1.5940     4.3741    -0.8908 H       
  46 H46            2.5323     4.8284     0.0865 H       
  47 H47            2.7650     2.3853     0.2757 H       
  48 H48            1.2662     6.6751    -0.8422 H       
  49 H49           -0.4560     6.4861    -1.2503 H       
  50 H50            1.0752     8.5676     0.6807 H       
  51 H51           -0.5443     8.6605    -0.0531 H       
  52 H52           -0.3660     9.8875     2.1490 H       
  53 H53           -1.5994     8.5994     2.1544 H       
  54 H54            0.9103     6.3511     4.0069 H       
  55 H55           -0.7572     6.2659     3.3804 H       
  56 H56            0.7291     5.1323     1.8006 H       
  57 H57            1.8030     6.5511     1.7402 H       
  58 H58            2.8459     9.6605     5.6679 H       
  59 H59            3.8156     8.5205     7.6153 H       
  60 H60            0.8607     5.4386     7.2943 H       
  61 H61           -0.1235     6.5771     5.3533 H       
  62 H62            3.9104     6.1502     8.7431 H       
  63 H63            5.1096     8.6522    12.0899 H       
  64 H64            4.1062    10.6248    13.1629 H       
  65 H65            1.6719    10.9736    13.0607 H       
  66 H66           -0.5477    10.1430    12.2679 H       
  67 H67           -1.8468     8.4605    11.0746 H       
  68 H68           -0.7445     6.5248    10.0370 H       
  69 H69           -3.1137     3.0698    -0.2769 H       
  70 H70           -2.6948     2.9842    -2.0047 H       
  71 H71           -3.5976     1.6539    -1.2408 H       
@<TRIPOS>BOND
   1    1    2 1
   2    1    3 2
   3    1    4 1
   4    2   42 1
   5    2   43 1
   6    2   44 1
   7    4    5 1
   8    5    6 ar
   9    5   10 ar
  10    6    7 ar
  11    6   40 1
  12    7    8 ar
  13    7   45 1
  14    8    9 ar
  15    8   11 1
  16    9   10 ar
  17    9   46 1
  18   10   47 1
  19   11   12 1
  20   11   48 1
  21   11   49 1
  22   12   13 1
  23   12   17 1
  24   13   14 1
  25   13   50 1
  26   13   51 1
  27   14   15 1
  28   14   52 1
  29   14   53 1
  30   15   16 1
  31   15   18 am
  32   16   17 1
  33   16   54 1
  34   16   55 1
  35   17   56 1
  36   17   57 1
  37   18   19 1
  38   18   25 2
  39   19   20 ar
  40   19   24 ar
  41   20   21 ar
  42   20   58 1
  43   21   22 ar
  44   21   59 1
  45   22   23 ar
  46   22   29 1
  47   23   24 ar
  48   23   60 1
  49   24   61 1
  50   26   27 2
  51   26   28 2
  52   26   29 am
  53   26   38 1
  54   29   62 1
  55   30   31 ar
  56   30   39 ar
  57   31   32 ar
  58   31   63 1
  59   32   33 ar
  60   32   64 1
  61   33   34 ar
  62   33   65 1
  63   34   35 ar
  64   34   39 ar
  65   35   36 ar
  66   35   66 1
  67   36   37 ar
  68   36   67 1
  69   37   38 ar
  70   37   68 1
  71   38   39 ar
  72   40   41 1
  73   41   69 1
  74   41   70 1
  75   41   71 1

#	End of record

