#	Name: ASD05720222
#	Creating user name:	WinNT
#	Creation time:	15. 06. 2019 21:02

#	Modifying user name:	WinNT
#	Modification time:	15. 06. 2019 21:02

#	Program:	/corina/corina34_cracker 3.40 0067  02.08.2006

@<TRIPOS>MOLECULE
ASD05720222
  82   86    0    0    0
SMALL
NO_CHARGES


@<TRIPOS>ATOM
   1 C1             2.0508     1.1056     0.3884 C.2     
   2 N2             1.7165    -0.1072    -0.0715 N.am    
   3 C3             2.8101    -0.6252    -0.9072 C.3     
   4 C4             3.8669     0.4957    -0.8687 C.3     
   5 N5             3.2566     1.5262    -0.0155 N.am    
   6 O6             1.3234     1.7669     1.1036 O.2     
   7 C7            -0.7692    -2.6768     0.0696 C.2     
   8 N8             0.3695    -2.0241    -0.1821 N.2     
   9 C9             0.5266    -0.7700     0.1978 C.2     
  10 C10           -0.5130    -0.1031     0.8775 C.2     
  11 C11           -1.6666    -0.7608     1.1338 C.2     
  12 N12           -1.7996    -2.0595     0.7277 N.pl3   
  13 N13           -2.8480    -2.9790     0.8454 N.2     
  14 C14           -2.4943    -4.1122     0.2910 C.2     
  15 C15           -1.1967    -3.9801    -0.2194 C.2     
  16 C16           -0.4218    -5.0216    -0.9291 C.ar    
  17 C17           -0.3048    -6.3005    -0.3801 C.ar    
  18 C18            0.4156    -7.2694    -1.0403 C.ar    
  19 C19            1.0299    -6.9738    -2.2598 C.ar    
  20 C20            0.9127    -5.6944    -2.8087 C.ar    
  21 C21            0.1878    -4.7273    -2.1508 C.ar    
  22 C22            1.8038    -8.0139    -2.9685 C.2     
  23 N23            2.1384    -7.9925    -4.2403 N.2     
  24 C24            2.8349    -9.0973    -4.5322 C.2     
  25 C25            2.9443    -9.8399    -3.4122 C.2     
  26 N26            2.2989    -9.1586    -2.4142 N.pl3   
  27 C27            2.1634    -9.5801    -1.0177 C.3     
  28 O28            2.9334   -10.7642    -0.8007 O.3     
  29 C29            2.8698   -11.2618     0.5373 C.3     
  30 C30            3.7264   -12.5242     0.6533 C.3     
  31 Si31           3.6435   -13.1728     2.3977 Si      
  32 C32            1.8766   -13.5800     2.8256 C.3     
  33 C33            4.6867   -14.7099     2.5390 C.3     
  34 C34            4.2844   -11.8773     3.5732 C.3     
  35 C35            3.8701     2.8091     0.3367 C.3     
  36 C36            4.6852     2.6490     1.6216 C.3     
  37 O37            5.7783     1.7597     1.3845 O.3     
  38 C38            6.6075     1.5403     2.5275 C.3     
  39 C39            2.3268    -0.8587    -2.3399 C.3     
  40 C40            1.3033    -1.9959    -2.3540 C.3     
  41 C41            1.6765     0.4193    -2.8735 C.3     
  42 H42            3.2126    -1.5453    -0.4834 H       
  43 H43            4.7942     0.1322    -0.4258 H       
  44 H44            4.0474     0.8859    -1.8704 H       
  45 H45           -0.3893     0.9230     1.1908 H       
  46 H46           -2.4736    -0.2658     1.6537 H       
  47 H47           -3.1048    -5.0012     0.2334 H       
  48 H48           -0.7794    -6.5288     0.5627 H       
  49 H49            0.5063    -8.2583    -0.6155 H       
  50 H50            1.3878    -5.4656    -3.7512 H       
  51 H51            0.0935    -3.7396    -2.5773 H       
  52 H52            3.2401    -9.3512    -5.5005 H       
  53 H53            3.4492   -10.7900    -3.3185 H       
  54 H54            2.5237    -8.7872    -0.3623 H       
  55 H55            1.1150    -9.7834    -0.7997 H       
  56 H56            3.2447   -10.5038     1.2250 H       
  57 H57            1.8360   -11.5000     0.7876 H       
  58 H58            3.3515   -13.2822    -0.0344 H       
  59 H59            4.7602   -12.2860     0.4030 H       
  60 H60            1.5017   -14.3380     2.1379 H       
  61 H61            1.8281   -13.9595     3.8462 H       
  62 H62            1.2663   -12.6806     2.7430 H       
  63 H63            5.7204   -14.4717     2.2886 H       
  64 H64            4.6382   -15.0895     3.5596 H       
  65 H65            4.3117   -15.4679     1.8512 H       
  66 H66            3.6741   -10.9780     3.4905 H       
  67 H67            4.2359   -12.2568     4.5938 H       
  68 H68            5.3182   -11.6391     3.3228 H       
  69 H69            4.5259     3.1324    -0.4717 H       
  70 H70            3.0900     3.5545     0.4918 H       
  71 H71            5.0683     3.6210     1.9323 H       
  72 H72            4.0489     2.2413     2.4071 H       
  73 H73            7.0305     2.4893     2.8570 H       
  74 H74            6.0111     1.1096     3.3317 H       
  75 H75            7.4134     0.8548     2.2655 H       
  76 H76            3.1749    -1.1254    -2.9705 H       
  77 H77            0.3419    -1.6239    -1.9999 H       
  78 H78            1.1945    -2.3743    -3.3704 H       
  79 H79            1.6444    -2.7998    -1.7016 H       
  80 H80            2.4056     1.2294    -2.8635 H       
  81 H81            1.3322     0.2529    -3.8942 H       
  82 H82            0.8284     0.6860    -2.2429 H       
@<TRIPOS>BOND
   1    1    2 am
   2    1    5 am
   3    1    6 2
   4    2    3 1
   5    2    9 1
   6    3    4 1
   7    3   39 1
   8    3   42 1
   9    4    5 1
  10    4   43 1
  11    4   44 1
  12    5   35 1
  13    7    8 1
  14    7   12 1
  15    7   15 2
  16    8    9 2
  17    9   10 1
  18   10   11 2
  19   10   45 1
  20   11   12 1
  21   11   46 1
  22   12   13 1
  23   13   14 2
  24   14   15 1
  25   14   47 1
  26   15   16 1
  27   16   17 ar
  28   16   21 ar
  29   17   18 ar
  30   17   48 1
  31   18   19 ar
  32   18   49 1
  33   19   20 ar
  34   19   22 1
  35   20   21 ar
  36   20   50 1
  37   21   51 1
  38   22   23 2
  39   22   26 1
  40   23   24 1
  41   24   25 2
  42   24   52 1
  43   25   26 1
  44   25   53 1
  45   26   27 1
  46   27   28 1
  47   27   54 1
  48   27   55 1
  49   28   29 1
  50   29   30 1
  51   29   56 1
  52   29   57 1
  53   30   31 1
  54   30   58 1
  55   30   59 1
  56   31   32 1
  57   31   33 1
  58   31   34 1
  59   32   60 1
  60   32   61 1
  61   32   62 1
  62   33   63 1
  63   33   64 1
  64   33   65 1
  65   34   66 1
  66   34   67 1
  67   34   68 1
  68   35   36 1
  69   35   69 1
  70   35   70 1
  71   36   37 1
  72   36   71 1
  73   36   72 1
  74   37   38 1
  75   38   73 1
  76   38   74 1
  77   38   75 1
  78   39   40 1
  79   39   41 1
  80   39   76 1
  81   40   77 1
  82   40   78 1
  83   40   79 1
  84   41   80 1
  85   41   81 1
  86   41   82 1

#	End of record

