#	Name: ASD01320128
#	Creating user name:	WinNT
#	Creation time:	15. 06. 2019 19:16

#	Modifying user name:	WinNT
#	Modification time:	15. 06. 2019 19:16

#	Program:	/corina/corina34_cracker 3.40 0067  02.08.2006

@<TRIPOS>MOLECULE
ASD01320128
  14   15    0    0    0
SMALL
NO_CHARGES


@<TRIPOS>ATOM
   1 N1            -0.0161     1.3346     0.0094 N.am    
   2 C2             0.0021    -0.0041     0.0020 C.2     
   3 N3             1.1207    -0.7469    -0.0123 N.am    
   4 C4             2.3492    -0.1599    -0.0204 C.2     
   5 C5             2.4097     1.3414    -0.0134 C.2     
   6 C6             1.1185     2.0699     0.0025 C.2     
   7 N7             3.6648     1.6533    -0.0232 N.2     
   8 C8             4.3932     0.5200    -0.0355 C.2     
   9 N9             3.5925    -0.5636    -0.0337 N.2     
  10 O10           -1.0647    -0.5856     0.0091 O.2     
  11 O11            1.0814     3.2835     0.0090 O.2     
  12 O12            5.6063     0.4805    -0.0466 O.2     
  13 H13           -0.8714     1.7920     0.0159 H       
  14 H14            1.0526    -1.7145    -0.0165 H       
@<TRIPOS>BOND
   1    1    2 am
   2    1    6 am
   3    1   13 1
   4    2    3 am
   5    2   10 2
   6    3    4 1
   7    3   14 1
   8    4    5 1
   9    4    9 2
  10    5    6 1
  11    5    7 2
  12    6   11 2
  13    7    8 1
  14    8    9 1
  15    8   12 2

#	End of record

