#	Name: ASD06590048
#	Creating user name:	WinNT
#	Creation time:	15. 06. 2019 21:06

#	Modifying user name:	WinNT
#	Modification time:	15. 06. 2019 21:06

#	Program:	/corina/corina34_cracker 3.40 0067  02.08.2006

@<TRIPOS>MOLECULE
ASD06590048
 213  212    0    0    0
SMALL
NO_CHARGES


@<TRIPOS>ATOM
   1 C1            -0.3470     1.7161    -1.3740 C.2     
   2 O2            -0.2623     0.5066    -1.3458 O.2     
   3 N3             2.0523     1.6767    -1.7357 N.am    
   4 C4             0.8876     2.5531    -1.5892 C.3     
   5 C5             0.7193     3.3938    -2.8565 C.3     
   6 O6             0.4120     2.5377    -3.9586 O.3     
   7 C7            -3.9461     2.3990    -0.8700 C.2     
   8 O8            -3.8107     3.6027    -0.9303 O.2     
   9 N9            -1.5461     2.3115    -1.2185 N.am    
  10 C10           -2.7472     1.4976    -1.0153 C.3     
  11 C11           -7.4047     2.0330     0.2558 C.2     
  12 O12           -7.2127     0.9056     0.6596 O.2     
  13 N13           -5.1689     1.8675    -0.6731 N.am    
  14 C14           -6.3344     2.7437    -0.5319 C.3     
  15 C15           -6.8743     3.1017    -1.9180 C.3     
  16 C16           -5.8332     3.9313    -2.6722 C.3     
  17 C17           -6.3730     4.2893    -4.0583 C.3     
  18 N18           -5.3761     5.0837    -4.7804 N.pl3   
  19 C19           -5.6404     5.5237    -6.0558 C.2     
  20 N20           -4.7535     6.2304    -6.6983 N.2     
  21 N21           -6.8402     5.2182    -6.6536 N.pl3   
  22 C22          -10.9636     2.5329     0.9243 C.2     
  23 O23          -11.0458     3.6560     0.4740 O.2     
  24 N24           -8.5751     2.6503     0.5117 N.am    
  25 C25           -9.6155     1.9594     1.2775 C.3     
  26 C26           -9.3574     2.1477     2.7738 C.3     
  27 C27           -8.0533     1.4462     3.1586 C.3     
  28 C28           -9.2451     3.6409     3.0880 C.3     
  29 C29          -14.4365     1.6645     1.6648 C.2     
  30 O30          -14.1113     0.7502     2.3923 O.2     
  31 N31          -12.0780     1.7977     1.1088 N.am    
  32 C32          -13.3946     2.3852     0.8486 C.3     
  33 C33          -13.7284     2.2500    -0.6385 C.3     
  34 C34          -12.7434     3.0841    -1.4601 C.3     
  35 C35          -12.9977     2.8515    -2.9508 C.3     
  36 C36          -12.9357     4.5668    -1.1352 C.3     
  37 C37          -18.0867     1.4725     1.7123 C.2     
  38 O38          -18.1886     2.0940     0.6759 O.2     
  39 N39          -15.7297     2.0361     1.5863 N.am    
  40 C40          -16.7425     1.3355     2.3798 C.3     
  41 C41          -16.8045     1.9460     3.7813 C.3     
  42 C42          -21.5721     0.8912     2.6489 C.2     
  43 O43          -21.2855     0.6951     3.8109 O.2     
  44 N44          -19.1756     0.9042     2.2672 N.am    
  45 C45          -20.4823     1.0373     1.6183 C.3     
  46 C46          -20.6369    -0.0515     0.5547 C.3     
  47 C47          -19.4610     0.0186    -0.4217 C.3     
  48 O48          -20.6567    -1.3338     1.1851 O.3     
  49 C49          -25.1891     0.3634     2.6114 C.2     
  50 O50          -25.2039     0.1646     1.4151 O.2     
  51 N51          -22.8652     0.9784     2.2792 N.am    
  52 C52          -23.9246     0.8363     3.2811 C.3     
  53 C53          -24.1774     2.1883     3.9513 C.3     
  54 C54          -22.9328     2.6095     4.7352 C.3     
  55 C55          -23.1856     3.9614     5.4054 C.3     
  56 C56          -21.9410     4.3826     6.1894 C.3     
  57 N57          -22.1837     5.6807     6.8329 N.3     
  58 C58          -28.7241     0.1245     3.5113 C.2     
  59 O59          -28.5623     0.7485     4.5386 O.2     
  60 N60          -26.3036     0.1614     3.3419 N.am    
  61 C61          -27.5328    -0.2984     2.6909 C.3     
  62 C62          -27.5089    -1.8238     2.5752 C.3     
  63 C63          -26.3735    -2.2466     1.6408 C.3     
  64 C64          -26.2698    -3.7730     1.6224 C.3     
  65 C65          -26.6606    -1.7379     0.2267 C.3     
  66 C66          -31.3797    -0.7982     4.9825 C.2     
  67 O67          -30.6654    -1.7681     5.0774 O.2     
  68 N68          -29.9694    -0.1907     3.1034 N.am    
  69 C69          -31.1275     0.2205     3.9009 C.3     
  70 C70          -32.3586     0.3212     2.9981 C.3     
  71 C71          -32.1520     1.4418     1.9771 C.3     
  72 C72          -33.3831     1.5426     1.0743 C.3     
  73 N73          -33.1852     2.6155     0.0966 N.pl3   
  74 C74          -34.1654     2.8939    -0.8264 C.2     
  75 N75          -35.2707     2.2031    -0.8316 N.2     
  76 N76          -33.9797     3.9008    -1.7439 N.pl3   
  77 O77          -32.3980    -0.6281     5.8404 O.3     
  78 C78            3.2837     2.1370    -1.4385 C.2     
  79 O79            3.4275     3.2767    -1.0497 O.2     
  80 C80           21.8526     0.1621     0.1371 C.3     
  81 C81           20.6362     1.0774     0.2901 C.3     
  82 C82           19.3711     0.3154    -0.1095 C.3     
  83 C83           18.1546     1.2308     0.0435 C.3     
  84 C84           16.8895     0.4688    -0.3561 C.3     
  85 C85           15.6731     1.3841    -0.2031 C.3     
  86 C86           14.4080     0.6221    -0.6028 C.3     
  87 C87           13.1916     1.5374    -0.4497 C.3     
  88 C88           11.9264     0.7754    -0.8494 C.3     
  89 C89           10.7100     1.6908    -0.6964 C.3     
  90 C90            9.4449     0.9288    -1.0960 C.3     
  91 C91            8.2285     1.8441    -0.9430 C.3     
  92 C92            6.9633     1.0821    -1.3426 C.3     
  93 C93            5.7469     1.9974    -1.1896 C.3     
  94 C94            4.4818     1.2354    -1.5892 C.3     
  95 H95            1.9373     0.7651    -2.0467 H       
  96 H96            1.0338     3.2117    -0.7331 H       
  97 H97           -0.0919     4.1078    -2.7138 H       
  98 H98            1.6449     3.9317    -3.0612 H       
  99 H99            0.2915     3.0041    -4.7972 H       
 100 H100          -1.6139     3.2788    -1.2410 H       
 101 H101          -2.6315     0.8984    -0.1121 H       
 102 H102          -2.8892     0.8393    -1.8723 H       
 103 H103          -5.2772     0.9047    -0.6250 H       
 104 H104          -6.0429     3.6546    -0.0091 H       
 105 H105          -7.0826     2.1876    -2.4740 H       
 106 H106          -7.7923     3.6798    -1.8122 H       
 107 H107          -5.6249     4.8454    -2.1162 H       
 108 H108          -4.9152     3.3532    -2.7780 H       
 109 H109          -6.5813     3.3752    -4.6143 H       
 110 H110          -7.2910     4.8674    -3.9525 H       
 111 H111          -4.5296     5.2993    -4.3586 H       
 112 H112          -4.9399     6.5409    -7.5982 H       
 113 H113          -7.5002     4.6922    -6.1755 H       
 114 H114          -7.0267     5.5286    -7.5535 H       
 115 H115          -8.7286     3.5520     0.1888 H       
 116 H116          -9.5985     0.8965     1.0368 H       
 117 H117         -10.1824     1.7179     3.3418 H       
 118 H118          -7.2282     1.8760     2.5906 H       
 119 H119          -7.8693     1.5803     4.2245 H       
 120 H120          -8.1332     0.3824     2.9347 H       
 121 H121         -10.1769     4.1395     2.8208 H       
 122 H122          -9.0538     3.7748     4.1527 H       
 123 H123          -8.4248     4.0723     2.5144 H       
 124 H124         -12.0084     0.8796     1.4140 H       
 125 H125         -13.3828     3.4397     1.1239 H       
 126 H126         -13.6533     1.2036    -0.9341 H       
 127 H127         -14.7431     2.6061    -0.8169 H       
 128 H128         -11.7236     2.7877    -1.2149 H       
 129 H129         -14.0176     3.1479    -3.1960 H       
 130 H130         -12.2960     3.4457    -3.5361 H       
 131 H131         -12.8608     1.7952    -3.1822 H       
 132 H132         -12.7545     4.7325    -0.0732 H       
 133 H133         -12.2340     5.1610    -1.7206 H       
 134 H134         -13.9556     4.8632    -1.3804 H       
 135 H135         -15.9897     2.7673     1.0044 H       
 136 H136         -16.4797     0.2803     2.4544 H       
 137 H137         -17.0672     3.0012     3.7067 H       
 138 H138         -17.5580     1.4248     4.3717 H       
 139 H139         -15.8322     1.8469     4.2641 H       
 140 H140         -19.0941     0.4071     3.0961 H       
 141 H141         -20.5562     2.0178     1.1479 H       
 142 H142         -21.5696     0.1008     0.0116 H       
 143 H143         -18.5283    -0.1337     0.1214 H       
 144 H144         -19.5711    -0.7571    -1.1794 H       
 145 H145         -19.4459     0.9967    -0.9025 H       
 146 H146         -19.8560    -1.5375     1.6876 H       
 147 H147         -23.0945     1.1352     1.3498 H       
 148 H148         -23.6182     0.1095     4.0333 H       
 149 H149         -24.3972     2.9361     3.1893 H       
 150 H150         -25.0243     2.1035     4.6322 H       
 151 H151         -22.7130     1.8616     5.4972 H       
 152 H152         -22.0859     2.6942     4.0543 H       
 153 H153         -23.4054     4.7092     4.6435 H       
 154 H154         -24.0325     3.8767     6.0864 H       
 155 H155         -21.7212     3.6348     6.9513 H       
 156 H156         -21.0941     4.4674     5.5084 H       
 157 H157         -23.0034     5.6455     7.4202 H       
 158 H158         -21.3757     5.9810     7.3573 H       
 159 H159         -26.2917     0.3204     4.2987 H       
 160 H160         -27.6029     0.1405     1.6956 H       
 161 H161         -27.3497    -2.2605     3.5611 H       
 162 H162         -28.4598    -2.1726     2.1725 H       
 163 H163         -25.4341    -1.8228     1.9956 H       
 164 H164         -27.2093    -4.1967     1.2676 H       
 165 H165         -25.4610    -4.0742     0.9567 H       
 166 H166         -26.0653    -4.1354     2.6298 H       
 167 H167         -27.6001    -2.1616    -0.1281 H       
 168 H168         -26.7345    -0.6504     0.2398 H       
 169 H169         -25.8518    -2.0391    -0.4390 H       
 170 H170         -30.0989    -0.6897     2.2818 H       
 171 H171         -30.9296     1.1913     4.3552 H       
 172 H172         -32.5043    -0.6242     2.4755 H       
 173 H173         -33.2372     0.5401     3.6049 H       
 174 H174         -32.0063     2.3872     2.4997 H       
 175 H175         -31.2733     1.2229     1.3703 H       
 176 H176         -33.5288     0.5972     0.5517 H       
 177 H177         -34.2617     1.7614     1.6811 H       
 178 H178         -32.3626     3.1296     0.1005 H       
 179 H179         -35.9622     2.3995    -1.4829 H       
 180 H180         -33.1571     4.4148    -1.7400 H       
 181 H181         -34.6712     4.0972    -2.3951 H       
 182 H182         -32.5201    -1.3080     6.5171 H       
 183 H183          22.7539     0.7050     0.4218 H       
 184 H184          21.7348    -0.7094     0.7810 H       
 185 H185          21.9357    -0.1613    -0.9005 H       
 186 H186          20.5531     1.4008     1.3277 H       
 187 H187          20.7540     1.9490    -0.3538 H       
 188 H188          19.4542    -0.0079    -1.1471 H       
 189 H189          19.2532    -0.5561     0.5344 H       
 190 H190          18.0715     1.5542     1.0811 H       
 191 H191          18.2725     2.1023    -0.6004 H       
 192 H192          16.9727     0.1454    -1.3937 H       
 193 H193          16.7717    -0.4028     0.2877 H       
 194 H194          15.5900     1.7075     0.8345 H       
 195 H195          15.7909     2.2557    -0.8470 H       
 196 H196          14.4911     0.2987    -1.6404 H       
 197 H197          14.2901    -0.2495     0.0411 H       
 198 H198          13.1084     1.8608     0.5879 H       
 199 H199          13.3094     2.4090    -1.0936 H       
 200 H200          12.0096     0.4520    -1.8870 H       
 201 H201          11.8086    -0.0961    -0.2055 H       
 202 H202          10.6269     2.0141     0.3412 H       
 203 H203          10.8278     2.5623    -1.3402 H       
 204 H204           9.5280     0.6054    -2.1336 H       
 205 H205           9.3270     0.0572    -0.4521 H       
 206 H206           8.1453     2.1675     0.0946 H       
 207 H207           8.3463     2.7156    -1.5869 H       
 208 H208           7.0465     0.7587    -2.3802 H       
 209 H209           6.8455     0.2105    -0.6987 H       
 210 H210           5.6638     2.3208    -0.1520 H       
 211 H211           5.8648     2.8690    -1.8335 H       
 212 H212           4.3639     0.3638    -0.9453 H       
 213 H213           4.5649     0.9120    -2.6268 H       
@<TRIPOS>BOND
   1    1    2 2
   2    1    4 1
   3    1    9 am
   4    3   78 am
   5    3    4 1
   6    3   95 1
   7    4    5 1
   8    4   96 1
   9    5    6 1
  10    5   97 1
  11    5   98 1
  12    6   99 1
  13    7    8 2
  14    7   10 1
  15    7   13 am
  16    9   10 1
  17    9  100 1
  18   10  101 1
  19   10  102 1
  20   11   12 2
  21   11   14 1
  22   11   24 am
  23   13   14 1
  24   13  103 1
  25   14   15 1
  26   14  104 1
  27   15   16 1
  28   15  105 1
  29   15  106 1
  30   16   17 1
  31   16  107 1
  32   16  108 1
  33   17   18 1
  34   17  109 1
  35   17  110 1
  36   18   19 1
  37   18  111 1
  38   19   20 2
  39   19   21 1
  40   20  112 1
  41   21  113 1
  42   21  114 1
  43   22   23 2
  44   22   25 1
  45   22   31 am
  46   24   25 1
  47   24  115 1
  48   25   26 1
  49   25  116 1
  50   26   27 1
  51   26   28 1
  52   26  117 1
  53   27  118 1
  54   27  119 1
  55   27  120 1
  56   28  121 1
  57   28  122 1
  58   28  123 1
  59   29   30 2
  60   29   32 1
  61   29   39 am
  62   31   32 1
  63   31  124 1
  64   32   33 1
  65   32  125 1
  66   33   34 1
  67   33  126 1
  68   33  127 1
  69   34   35 1
  70   34   36 1
  71   34  128 1
  72   35  129 1
  73   35  130 1
  74   35  131 1
  75   36  132 1
  76   36  133 1
  77   36  134 1
  78   37   38 2
  79   37   40 1
  80   37   44 am
  81   39   40 1
  82   39  135 1
  83   40   41 1
  84   40  136 1
  85   41  137 1
  86   41  138 1
  87   41  139 1
  88   42   43 2
  89   42   45 1
  90   42   51 am
  91   44   45 1
  92   44  140 1
  93   45   46 1
  94   45  141 1
  95   46   47 1
  96   46   48 1
  97   46  142 1
  98   47  143 1
  99   47  144 1
 100   47  145 1
 101   48  146 1
 102   49   50 2
 103   49   52 1
 104   49   60 am
 105   51   52 1
 106   51  147 1
 107   52   53 1
 108   52  148 1
 109   53   54 1
 110   53  149 1
 111   53  150 1
 112   54   55 1
 113   54  151 1
 114   54  152 1
 115   55   56 1
 116   55  153 1
 117   55  154 1
 118   56   57 1
 119   56  155 1
 120   56  156 1
 121   57  157 1
 122   57  158 1
 123   58   59 2
 124   58   61 1
 125   58   68 am
 126   60   61 1
 127   60  159 1
 128   61   62 1
 129   61  160 1
 130   62   63 1
 131   62  161 1
 132   62  162 1
 133   63   64 1
 134   63   65 1
 135   63  163 1
 136   64  164 1
 137   64  165 1
 138   64  166 1
 139   65  167 1
 140   65  168 1
 141   65  169 1
 142   66   67 2
 143   66   69 1
 144   66   77 1
 145   68   69 1
 146   68  170 1
 147   69   70 1
 148   69  171 1
 149   70   71 1
 150   70  172 1
 151   70  173 1
 152   71   72 1
 153   71  174 1
 154   71  175 1
 155   72   73 1
 156   72  176 1
 157   72  177 1
 158   73   74 1
 159   73  178 1
 160   74   75 2
 161   74   76 1
 162   75  179 1
 163   76  180 1
 164   76  181 1
 165   77  182 1
 166   78   79 2
 167   78   94 1
 168   80   81 1
 169   80  183 1
 170   80  184 1
 171   80  185 1
 172   81   82 1
 173   81  186 1
 174   81  187 1
 175   82   83 1
 176   82  188 1
 177   82  189 1
 178   83   84 1
 179   83  190 1
 180   83  191 1
 181   84   85 1
 182   84  192 1
 183   84  193 1
 184   85   86 1
 185   85  194 1
 186   85  195 1
 187   86   87 1
 188   86  196 1
 189   86  197 1
 190   87   88 1
 191   87  198 1
 192   87  199 1
 193   88   89 1
 194   88  200 1
 195   88  201 1
 196   89   90 1
 197   89  202 1
 198   89  203 1
 199   90   91 1
 200   90  204 1
 201   90  205 1
 202   91   92 1
 203   91  206 1
 204   91  207 1
 205   92   93 1
 206   92  208 1
 207   92  209 1
 208   93   94 1
 209   93  210 1
 210   93  211 1
 211   94  212 1
 212   94  213 1

#	End of record

