#	Name: ASD03080098
#	Creating user name:	WinNT
#	Creation time:	15. 06. 2019 20:26

#	Modifying user name:	WinNT
#	Modification time:	15. 06. 2019 20:26

#	Program:	/corina/corina34_cracker 3.40 0067  02.08.2006

@<TRIPOS>MOLECULE
ASD03080098
  30   32    0    0    0
SMALL
NO_CHARGES


@<TRIPOS>ATOM
   1 C1            -0.0173     1.4248     0.0099 C.3     
   2 O2             0.0021    -0.0041     0.0020 O.3     
   3 C3            -1.2003    -0.6375     0.0101 C.ar    
   4 C4            -2.3744     0.1029     0.0253 C.ar    
   5 C5            -3.6007    -0.5362     0.0336 C.ar    
   6 C6            -3.6652    -1.9143     0.0263 C.ar    
   7 C7            -2.4898    -2.6673     0.0106 C.ar    
   8 C8            -1.2537    -2.0213    -0.0026 C.ar    
   9 C9            -2.5550    -4.1444     0.0028 C.2     
  10 O10           -1.5135    -4.9905    -0.0117 O.3     
  11 N11           -1.9118    -6.1360    -0.0137 N.2     
  12 C12           -3.2199    -6.1625    -0.0011 C.2     
  13 N13           -3.6485    -4.8830     0.0146 N.2     
  14 C14           -4.0747    -7.3761     0.0009 C.ar    
  15 C15           -3.4997    -8.6493    -0.0107 C.ar    
  16 C16           -4.3402    -9.7496    -0.0077 C.ar    
  17 C17           -5.7090    -9.5549     0.0065 C.ar    
  18 N18           -6.2229    -8.3399     0.0173 N.ar    
  19 C19           -5.4631    -7.2639     0.0203 C.ar    
  20 H20            1.0053     1.8021     0.0021 H       
  21 H21           -0.5445     1.7859    -0.8732 H       
  22 H22           -0.5275     1.7763     0.9067 H       
  23 H23           -2.3300     1.1820     0.0310 H       
  24 H24           -4.5107     0.0453     0.0461 H       
  25 H25           -4.6245    -2.4103     0.0332 H       
  26 H26           -0.3410    -2.5985    -0.0152 H       
  27 H27           -2.4267    -8.7722    -0.0221 H       
  28 H28           -3.9311   -10.7491    -0.0168 H       
  29 H29           -6.3678   -10.4107     0.0085 H       
  30 H30           -5.9208    -6.2857     0.0296 H       
@<TRIPOS>BOND
   1    1    2 1
   2    1   20 1
   3    1   21 1
   4    1   22 1
   5    2    3 1
   6    3    4 ar
   7    3    8 ar
   8    4    5 ar
   9    4   23 1
  10    5    6 ar
  11    5   24 1
  12    6    7 ar
  13    6   25 1
  14    7    8 ar
  15    7    9 1
  16    8   26 1
  17    9   10 1
  18    9   13 2
  19   10   11 1
  20   11   12 2
  21   12   13 1
  22   12   14 1
  23   14   15 ar
  24   14   19 ar
  25   15   16 ar
  26   15   27 1
  27   16   17 ar
  28   16   28 1
  29   17   18 ar
  30   17   29 1
  31   18   19 ar
  32   19   30 1

#	End of record

