#	Name: ASD03730275
#	Creating user name:	WinNT
#	Creation time:	15. 06. 2019 20:44

#	Modifying user name:	WinNT
#	Modification time:	15. 06. 2019 20:44

#	Program:	/corina/corina34_cracker 3.40 0067  02.08.2006

@<TRIPOS>MOLECULE
ASD03730275
  74   81    0    0    0
SMALL
NO_CHARGES


@<TRIPOS>ATOM
   1 O1             0.4547     1.2005     0.2546 O.3     
   2 C2             0.5863    -0.2335     0.2504 C.3     
   3 O3             1.8034    -0.4630    -0.4837 O.3     
   4 C4             2.5583     0.6600    -0.2998 C.ar    
   5 C5             1.7281     1.6831     0.1524 C.ar    
   6 C6             3.9090     0.8954    -0.4832 C.ar    
   7 C7             4.4479     2.1511    -0.2194 C.ar    
   8 C8             3.6069     3.1682     0.2216 C.ar    
   9 C9             2.2606     2.9351     0.4104 C.ar    
  10 O10            5.7384     2.5825    -0.3119 O.3     
  11 C11            4.4653     4.3935     0.3869 C.3     
  12 C12            5.7564     4.0223    -0.3555 C.3     
  13 N13            4.2795     5.9746     2.0262 N.am    
  14 C14            4.7248     4.7176     1.8301 C.2     
  15 C15            3.8227     5.6215    -0.1863 C.ar    
  16 C16            3.3491     5.9564    -1.4481 C.ar    
  17 C17            2.7898     7.2161    -1.6668 C.ar    
  18 C18            2.7124     8.1199    -0.6260 C.ar    
  19 C19            3.1841     7.7862     0.6274 C.ar    
  20 C20            3.7445     6.5315     0.8617 C.ar    
  21 O21            5.2343     3.9909     2.6567 O.2     
  22 N22            3.0320     3.2342    -3.8790 N.am    
  23 C23            2.6480     3.8939    -2.7472 C.2     
  24 C24            3.4377     4.9792    -2.5592 C.2     
  25 C25            4.4004     4.9993    -3.6722 C.ar    
  26 C26            5.4470     5.8473    -4.0318 C.ar    
  27 C27            6.1754     5.5867    -5.1588 C.ar    
  28 C28            5.8809     4.4837    -5.9482 C.ar    
  29 C29            4.8507     3.6337    -5.6107 C.ar    
  30 C30            4.0971     3.8808    -4.4671 C.ar    
  31 S31            2.3249     1.8530    -4.4573 S.o2    
  32 O32            3.3835     0.9482    -4.7400 O.2     
  33 O33            1.2571     1.5474    -3.5709 O.2     
  34 C34            1.5864     2.2542    -6.0060 C.ar    
  35 C35            2.3152     2.1246    -7.1735 C.ar    
  36 C36            1.7359     2.4394    -8.3885 C.ar    
  37 C37            0.4276     2.8834    -8.4360 C.ar    
  38 C38           -0.3015     3.0121    -7.2686 C.ar    
  39 C39            0.2765     2.6931    -6.0541 C.ar    
  40 C40            4.3486     6.6754     3.3109 C.3     
  41 C41            5.6730     7.4354     3.4068 C.3     
  42 C42            5.7451     8.1673     4.7484 C.3     
  43 C43            7.0696     8.9272     4.8443 C.3     
  44 C44            7.1416     9.6591     6.1860 C.3     
  45 H45            0.6757    -0.6128     1.2684 H       
  46 H46           -0.2605    -0.6944    -0.2582 H       
  47 H47            4.5496     0.0994    -0.8330 H       
  48 H48            1.6201     3.7310     0.7606 H       
  49 H49            6.6293     4.4144     0.1663 H       
  50 H50            5.7270     4.3788    -1.3851 H       
  51 H51            2.4196     7.4828    -2.6456 H       
  52 H52            2.2801     9.0953    -0.7939 H       
  53 H53            3.1181     8.5025     1.4330 H       
  54 H54            1.8370     3.5959    -2.0992 H       
  55 H55            5.6812     6.7075    -3.4222 H       
  56 H56            6.9858     6.2441    -5.4372 H       
  57 H57            6.4649     4.2901    -6.8358 H       
  58 H58            4.6288     2.7782    -6.2313 H       
  59 H59            3.3373     1.7778    -7.1363 H       
  60 H60            2.3055     2.3389    -9.3005 H       
  61 H61           -0.0248     3.1300    -9.3852 H       
  62 H62           -1.3235     3.3593    -7.3058 H       
  63 H63           -0.2943     2.7902    -5.1424 H       
  64 H64            3.5196     7.3792     3.3858 H       
  65 H65            4.2853     5.9517     4.1235 H       
  66 H66            6.5020     6.7316     3.3319 H       
  67 H67            5.7363     8.1591     2.5942 H       
  68 H68            4.9162     8.8711     4.8234 H       
  69 H69            5.6818     7.4435     5.5610 H       
  70 H70            7.8985     8.2234     4.7694 H       
  71 H71            7.1329     9.6509     4.0318 H       
  72 H72            6.3127    10.3629     6.2609 H       
  73 H73            7.0783     8.9353     6.9986 H       
  74 H74            8.0852    10.2005     6.2543 H       
@<TRIPOS>BOND
   1    1    2 1
   2    1    5 1
   3    2    3 1
   4    2   45 1
   5    2   46 1
   6    3    4 1
   7    4    5 ar
   8    4    6 ar
   9    5    9 ar
  10    6    7 ar
  11    6   47 1
  12    7    8 ar
  13    7   10 1
  14    8    9 ar
  15    8   11 1
  16    9   48 1
  17   10   12 1
  18   11   12 1
  19   11   14 1
  20   11   15 1
  21   12   49 1
  22   12   50 1
  23   13   14 am
  24   13   20 1
  25   13   40 1
  26   14   21 2
  27   15   16 ar
  28   15   20 ar
  29   16   17 ar
  30   16   24 1
  31   17   18 ar
  32   17   51 1
  33   18   19 ar
  34   18   52 1
  35   19   20 ar
  36   19   53 1
  37   22   23 1
  38   22   30 1
  39   22   31 am
  40   23   24 2
  41   23   54 1
  42   24   25 1
  43   25   26 ar
  44   25   30 ar
  45   26   27 ar
  46   26   55 1
  47   27   28 ar
  48   27   56 1
  49   28   29 ar
  50   28   57 1
  51   29   30 ar
  52   29   58 1
  53   31   32 2
  54   31   33 2
  55   31   34 1
  56   34   35 ar
  57   34   39 ar
  58   35   36 ar
  59   35   59 1
  60   36   37 ar
  61   36   60 1
  62   37   38 ar
  63   37   61 1
  64   38   39 ar
  65   38   62 1
  66   39   63 1
  67   40   41 1
  68   40   64 1
  69   40   65 1
  70   41   42 1
  71   41   66 1
  72   41   67 1
  73   42   43 1
  74   42   68 1
  75   42   69 1
  76   43   44 1
  77   43   70 1
  78   43   71 1
  79   44   72 1
  80   44   73 1
  81   44   74 1

#	End of record

