#	Name: ASD01140734
#	Creating user name:	WinNT
#	Creation time:	15. 06. 2019 19:01

#	Modifying user name:	WinNT
#	Modification time:	15. 06. 2019 19:01

#	Program:	/corina/corina34_cracker 3.40 0067  02.08.2006

@<TRIPOS>MOLECULE
ASD01140734
  55   57    0    0    0
SMALL
NO_CHARGES


@<TRIPOS>ATOM
   1 C1            -0.0187     1.5258     0.0104 C.3     
   2 C2             0.0021    -0.0041     0.0020 C.3     
   3 C3             0.7182    -0.4975    -1.2568 C.3     
   4 C4             0.7390    -2.0273    -1.2652 C.3     
   5 H5            -0.2789    -2.4050    -1.1679 H       
   6 C6             1.3429    -2.5219    -2.5810 C.3     
   7 O7             2.6322    -1.9336    -2.7643 O.3     
   8 N8             1.5485    -2.5109    -0.1440 N.am    
   9 C9             1.3281    -3.7388     0.3660 C.2     
  10 O10            0.4575    -4.4452    -0.1043 O.2     
  11 C11            2.1438    -4.2260     1.4957 C.ar    
  12 C12            1.9273    -5.5042     2.0309 C.ar    
  13 C13            2.7153    -5.9148     3.0866 C.ar    
  14 C14            3.6907    -5.0552     3.5819 C.ar    
  15 O15            4.4674    -5.4531     4.6185 O.3     
  16 C16            5.4518    -4.5277     5.0841 C.3     
  17 C17            6.2133    -5.1394     6.2317 C.2     
  18 C18            5.9244    -5.0758     7.5515 C.2     
  19 C19            4.7544    -4.3667     8.1834 C.3     
  20 O20            6.8806    -5.7667     8.1882 O.3     
  21 N21            7.6913    -6.2268     7.4182 N.2     
  22 C22            7.3994    -5.9231     6.1780 C.2     
  23 C23            8.1556    -6.3148     4.9619 C.ar    
  24 C24            9.5154    -6.6189     5.0487 C.ar    
  25 C25           10.1756    -6.9797     3.8830 C.ar    
  26 C26            9.4459    -7.0163     2.7047 C.ar    
  27 C27           10.1199    -7.4031     1.4135 C.3     
  28 N28            8.1611    -6.7131     2.7131 N.ar    
  29 N29            7.5413    -6.3832     3.7875 N.ar    
  30 N30            3.8712    -3.8539     3.0546 N.ar    
  31 C31            3.1460    -3.4240     2.0436 C.ar    
  32 H32            1.0039     1.9031     0.0027 H       
  33 H33           -0.5459     1.8868    -0.8726 H       
  34 H34           -0.5289     1.8773     0.9072 H       
  35 H35            0.5293    -0.3651     0.8851 H       
  36 H36           -1.0205    -0.3814     0.0098 H       
  37 H37            0.1910    -0.1364    -2.1398 H       
  38 H38            1.7408    -0.1202    -1.2645 H       
  39 H39            1.4397    -3.6072    -2.5511 H       
  40 H40            0.6930    -2.2378    -3.4086 H       
  41 H41            3.0752    -2.2032    -3.5805 H       
  42 H42            2.2431    -1.9473     0.2312 H       
  43 H43            1.1625    -6.1509     1.6269 H       
  44 H44            2.5762    -6.8925     3.5238 H       
  45 H45            6.1422    -4.2934     4.2738 H       
  46 H46            4.9616    -3.6138     5.4194 H       
  47 H47            3.9093    -5.0516     8.2538 H       
  48 H48            5.0311    -4.0274     9.1816 H       
  49 H49            4.4764    -3.5083     7.5719 H       
  50 H50           10.0370    -6.5742     5.9933 H       
  51 H51           11.2275    -7.2246     3.8931 H       
  52 H52           10.0505    -8.4822     1.2764 H       
  53 H53            9.6280    -6.8988     0.5817 H       
  54 H54           11.1686    -7.1080     1.4484 H       
  55 H55            3.3254    -2.4397     1.6370 H       
@<TRIPOS>BOND
   1    1    2 1
   2    1   32 1
   3    1   33 1
   4    1   34 1
   5    2    3 1
   6    2   35 1
   7    2   36 1
   8    3    4 1
   9    3   37 1
  10    3   38 1
  11    4    5 1
  12    4    6 1
  13    4    8 1
  14    6    7 1
  15    6   39 1
  16    6   40 1
  17    7   41 1
  18    8    9 am
  19    8   42 1
  20    9   10 2
  21    9   11 1
  22   11   31 ar
  23   11   12 ar
  24   12   13 ar
  25   12   43 1
  26   13   14 ar
  27   13   44 1
  28   14   15 1
  29   14   30 ar
  30   15   16 1
  31   16   17 1
  32   16   45 1
  33   16   46 1
  34   17   22 1
  35   17   18 2
  36   18   19 1
  37   18   20 1
  38   19   47 1
  39   19   48 1
  40   19   49 1
  41   20   21 1
  42   21   22 2
  43   22   23 1
  44   23   29 ar
  45   23   24 ar
  46   24   25 ar
  47   24   50 1
  48   25   26 ar
  49   25   51 1
  50   26   27 1
  51   26   28 ar
  52   27   52 1
  53   27   53 1
  54   27   54 1
  55   28   29 ar
  56   30   31 ar
  57   31   55 1

#	End of record

