#	Name: ASD01882949
#	Creating user name:	WinNT
#	Creation time:	15. 06. 2019 19:45

#	Modifying user name:	WinNT
#	Modification time:	15. 06. 2019 19:45

#	Program:	/corina/corina34_cracker 3.40 0067  02.08.2006

@<TRIPOS>MOLECULE
ASD01882949
  45   47    0    0    0
SMALL
NO_CHARGES


@<TRIPOS>ATOM
   1 N1            -0.0156     1.2968     0.0092 N.2     
   2 O2             1.1304    -0.7403    -0.0122 O.3     
   3 C3             0.0021    -0.0041     0.0020 C.2     
   4 N4            -1.1277    -0.7859     0.0086 N.pl3   
   5 C5            -0.6959    -2.1324     0.4413 C.3     
   6 C6             0.7918    -2.1365     0.0200 C.3     
   7 C7             0.9586    -2.7643    -1.3653 C.3     
   8 C8             1.6435    -2.8746     1.0547 C.3     
   9 O9             3.0233    -2.7704     0.6976 O.3     
  10 C10            3.9206    -3.3762     1.5189 C.ar    
  11 C11            5.2766    -3.3149     1.2323 C.ar    
  12 C12            6.1868    -3.9316     2.0688 C.ar    
  13 C13            5.7473    -4.6096     3.1908 C.ar    
  14 C14            4.3964    -4.6725     3.4784 C.ar    
  15 C15            3.4827    -4.0522     2.6485 C.ar    
  16 C16            6.7424    -5.2814     4.1016 C.3     
  17 C17            6.6346    -4.6822     5.5052 C.3     
  18 C18            7.6449    -5.3643     6.4299 C.3     
  19 C19            7.3483    -6.8640     6.4914 C.3     
  20 C20            7.4561    -7.4632     5.0878 C.3     
  21 C21            6.4458    -6.7811     4.1631 C.3     
  22 H22            0.8178     1.7932     0.0039 H       
  23 H23           -2.0281    -0.5099    -0.2240 H       
  24 H24           -0.7960    -2.2462     1.5207 H       
  25 H25           -1.2524    -2.9083    -0.0846 H       
  26 H26            1.9996    -2.6830    -1.6781 H       
  27 H27            0.6725    -3.8153    -1.3247 H       
  28 H28            0.3226    -2.2420    -2.0799 H       
  29 H29            1.4880    -2.4297     2.0375 H       
  30 H30            1.3535    -3.9250     1.0814 H       
  31 H31            5.6204    -2.7858     0.3558 H       
  32 H32            7.2425    -3.8845     1.8459 H       
  33 H33            4.0555    -5.2032     4.3551 H       
  34 H34            2.4279    -4.0975     2.8762 H       
  35 H35            7.7502    -5.1258     3.7165 H       
  36 H36            6.8459    -3.6138     5.4614 H       
  37 H37            5.6269    -4.8378     5.8903 H       
  38 H38            8.6527    -5.2087     6.0448 H       
  39 H39            7.5681    -4.9374     7.4299 H       
  40 H40            8.0681    -7.3500     7.1502 H       
  41 H41            6.3406    -7.0196     6.8765 H       
  42 H42            8.4639    -7.3076     4.7027 H       
  43 H43            7.2448    -8.5317     5.1316 H       
  44 H44            5.4381    -6.9367     4.5482 H       
  45 H45            6.5226    -7.2080     3.1631 H       
@<TRIPOS>BOND
   1    1    3 2
   2    1   22 1
   3    2    3 1
   4    2    6 1
   5    3    4 1
   6    4    5 1
   7    4   23 1
   8    5    6 1
   9    5   24 1
  10    5   25 1
  11    6    7 1
  12    6    8 1
  13    7   26 1
  14    7   27 1
  15    7   28 1
  16    8    9 1
  17    8   29 1
  18    8   30 1
  19    9   10 1
  20   10   11 ar
  21   10   15 ar
  22   11   12 ar
  23   11   31 1
  24   12   13 ar
  25   12   32 1
  26   13   14 ar
  27   13   16 1
  28   14   15 ar
  29   14   33 1
  30   15   34 1
  31   16   17 1
  32   16   21 1
  33   16   35 1
  34   17   18 1
  35   17   36 1
  36   17   37 1
  37   18   19 1
  38   18   38 1
  39   18   39 1
  40   19   20 1
  41   19   40 1
  42   19   41 1
  43   20   21 1
  44   20   42 1
  45   20   43 1
  46   21   44 1
  47   21   45 1

#	End of record

