#	Name: ASD01028717
#	Creating user name:	WinNT
#	Creation time:	15. 06. 2019 18:58

#	Modifying user name:	WinNT
#	Modification time:	15. 06. 2019 18:58

#	Program:	/corina/corina34_cracker 3.40 0067  02.08.2006

@<TRIPOS>MOLECULE
ASD01028717
  44   48    0    0    0
SMALL
NO_CHARGES


@<TRIPOS>ATOM
   1 N1            -0.0157     1.3066     0.0092 N.ar    
   2 C2             0.0021    -0.0041     0.0020 C.ar    
   3 C3             1.1967    -0.7211    -0.0128 C.ar    
   4 C4             2.3902    -0.0572    -0.0206 C.ar    
   5 C5             2.3672     1.3504    -0.0132 C.ar    
   6 C6             3.5535     2.1011    -0.0200 C.ar    
   7 C7             3.4892     3.4613    -0.0122 C.ar    
   8 C8             2.2611     4.1187     0.0030 C.ar    
   9 C9             1.0917     3.4224     0.0100 C.ar    
  10 C10            1.1167     2.0170     0.0022 C.ar    
  11 C11            4.7634     4.2659    -0.0195 C.3     
  12 C12            4.8209     5.1414     1.2340 C.3     
  13 C13            5.4394     6.0959    -3.2397 C.ar    
  14 C14            5.8095     5.1131    -2.3045 C.ar    
  15 C15            6.9613     4.3547    -2.5235 C.ar    
  16 C16            7.7023     4.6096    -3.6749 C.ar    
  17 C17            7.2697     5.6024    -4.5561 C.ar    
  18 N18            6.1794     6.2992    -4.3201 N.ar    
  19 O19            4.3025     6.6607    -2.7843 O.3     
  20 N20            3.9316     6.0540    -1.5632 N.2     
  21 C21            4.7976     5.1414    -1.2457 C.2     
  22 N22           10.7561     3.0966    -4.9301 N.pl3   
  23 N23           10.5672     2.3756    -3.7448 N.2     
  24 C24            9.4822     2.8125    -3.1618 C.2     
  25 C25            8.9371     3.8353    -3.9616 C.2     
  26 C26            9.7489     3.9860    -5.0472 C.2     
  27 C27           11.8603     2.9197    -5.8765 C.3     
  28 H28           -0.9341    -0.5425     0.0081 H       
  29 H29            1.1789    -1.8009    -0.0177 H       
  30 H30            3.3255    -0.5970    -0.0317 H       
  31 H31            4.5116     1.6027    -0.0311 H       
  32 H32            2.2365     5.1984     0.0097 H       
  33 H33            0.1481     3.9476     0.0221 H       
  34 H34            5.6193     3.5911    -0.0309 H       
  35 H35            5.7425     5.7234     1.2287 H       
  36 H36            3.9650     5.8163     1.2454 H       
  37 H37            4.7962     4.5082     2.1208 H       
  38 H38            7.2684     3.5939    -1.8212 H       
  39 H39            7.8423     5.8027    -5.4496 H       
  40 H40            9.0743     2.4515    -2.2292 H       
  41 H41            9.6105     4.6903    -5.8542 H       
  42 H42           11.5823     2.1771    -6.6245 H       
  43 H43           12.0729     3.8689    -6.3683 H       
  44 H44           12.7473     2.5813    -5.3408 H       
@<TRIPOS>BOND
   1    1    2 ar
   2    1   10 ar
   3    2    3 ar
   4    2   28 1
   5    3    4 ar
   6    3   29 1
   7    4    5 ar
   8    4   30 1
   9    5    6 ar
  10    5   10 ar
  11    6    7 ar
  12    6   31 1
  13    7    8 ar
  14    7   11 1
  15    8    9 ar
  16    8   32 1
  17    9   10 ar
  18    9   33 1
  19   11   12 1
  20   11   21 1
  21   11   34 1
  22   12   35 1
  23   12   36 1
  24   12   37 1
  25   13   14 ar
  26   13   18 ar
  27   13   19 1
  28   14   15 ar
  29   14   21 1
  30   15   16 ar
  31   15   38 1
  32   16   17 ar
  33   16   25 1
  34   17   18 ar
  35   17   39 1
  36   19   20 1
  37   20   21 2
  38   22   23 1
  39   22   26 1
  40   22   27 1
  41   23   24 2
  42   24   25 1
  43   24   40 1
  44   25   26 2
  45   26   41 1
  46   27   42 1
  47   27   43 1
  48   27   44 1

#	End of record

