#	Name: ASD00170637
#	Creating user name:	WinNT
#	Creation time:	15. 06. 2019 18:32

#	Modifying user name:	WinNT
#	Modification time:	15. 06. 2019 18:32

#	Program:	/corina/corina34_cracker 3.40 0067  02.08.2006

@<TRIPOS>MOLECULE
ASD00170637
  49   53    0    0    0
SMALL
NO_CHARGES


@<TRIPOS>ATOM
   1 C1            -0.0140     1.2157     0.0086 C.2     
   2 O2             0.4959     0.9536    -1.0668 O.2     
   3 C3             0.6667     0.8331     1.2604 C.ar    
   4 C4             0.1555     1.2317     2.4870 C.ar    
   5 C5             0.7916     0.8748     3.6690 C.ar    
   6 C6             1.9311     0.1269     3.6590 C.ar    
   7 C7             2.4849    -0.2987     2.4393 C.ar    
   8 C8             3.6597    -1.0699     2.4036 C.ar    
   9 C9             4.1697    -1.4653     1.2048 C.ar    
  10 C10            3.5441    -1.1167     0.0101 C.ar    
  11 C11            2.4041    -0.3701     0.0083 C.ar    
  12 C12            1.8471     0.0493     1.2238 C.ar    
  13 S13           -3.0885     3.7296     0.2114 S.3     
  14 C14           -1.4006     3.2676     0.1953 C.2     
  15 C15           -1.2971     1.9145     0.0583 C.2     
  16 C16           -2.5889     1.2216    -0.0348 C.2     
  17 C17           -2.5910    -0.2924    -0.1641 C.3     
  18 S18           -4.1318    -0.8951    -0.8900 S.3     
  19 C19           -5.3799    -0.1423     0.1972 C.3     
  20 S20           -5.3537     1.6478    -0.0821 S.3     
  21 C21           -3.6299     2.0567     0.0214 C.2     
  22 C22           -6.7436    -0.6904    -0.1358 C.ar    
  23 C23           -7.4712    -1.3633     0.8283 C.ar    
  24 C24           -8.7215    -1.8667     0.5256 C.ar    
  25 C25           -9.2470    -1.6967    -0.7470 C.ar    
  26 C26           -8.5149    -1.0212    -1.7126 C.ar    
  27 C27           -7.2675    -0.5147    -1.4033 C.ar    
  28 O28          -10.4766    -2.1914    -1.0474 O.3     
  29 C29          -10.9541    -1.9791    -2.3774 C.3     
  30 N30           -0.3355     4.1403     0.3044 N.pl3   
  31 H31           -0.7458     1.8256     2.5231 H       
  32 H32            0.3762     1.1960     4.6127 H       
  33 H33            2.4095    -0.1389     4.5901 H       
  34 H34            4.1553    -1.3470     3.3223 H       
  35 H35            5.0726    -2.0574     1.1798 H       
  36 H36            3.9687    -1.4424    -0.9280 H       
  37 H37            1.9296    -0.1068    -0.9255 H       
  38 H38           -1.7568    -0.5968    -0.7961 H       
  39 H39           -2.4666    -0.7342     0.8246 H       
  40 H40           -5.1396    -0.3567     1.2385 H       
  41 H41           -7.0616    -1.4957     1.8188 H       
  42 H42           -9.2893    -2.3926     1.2790 H       
  43 H43           -8.9218    -0.8875    -2.7041 H       
  44 H44           -6.6992     0.0154    -2.1532 H       
  45 H45          -11.0125    -0.9089    -2.5760 H       
  46 H46          -10.2701    -2.4436    -3.0876 H       
  47 H47          -11.9441    -2.4227    -2.4831 H       
  48 H48           -0.4928     5.0972     0.3261 H       
  49 H49            0.5698     3.7963     0.3592 H       
@<TRIPOS>BOND
   1    1    2 2
   2    1    3 1
   3    1   15 1
   4    3    4 ar
   5    3   12 ar
   6    4    5 ar
   7    4   31 1
   8    5    6 ar
   9    5   32 1
  10    6    7 ar
  11    6   33 1
  12    7    8 ar
  13    7   12 ar
  14    8    9 ar
  15    8   34 1
  16    9   10 ar
  17    9   35 1
  18   10   11 ar
  19   10   36 1
  20   11   12 ar
  21   11   37 1
  22   13   14 1
  23   13   21 1
  24   14   15 2
  25   14   30 1
  26   15   16 1
  27   16   17 1
  28   16   21 2
  29   17   18 1
  30   17   38 1
  31   17   39 1
  32   18   19 1
  33   19   20 1
  34   19   22 1
  35   19   40 1
  36   20   21 1
  37   22   23 ar
  38   22   27 ar
  39   23   24 ar
  40   23   41 1
  41   24   25 ar
  42   24   42 1
  43   25   26 ar
  44   25   28 1
  45   26   27 ar
  46   26   43 1
  47   27   44 1
  48   28   29 1
  49   29   45 1
  50   29   46 1
  51   29   47 1
  52   30   48 1
  53   30   49 1

#	End of record

