#	Name: ASD01810774
#	Creating user name:	WinNT
#	Creation time:	15. 06. 2019 19:25

#	Modifying user name:	WinNT
#	Modification time:	15. 06. 2019 19:25

#	Program:	/corina/corina34_cracker 3.40 0067  02.08.2006

@<TRIPOS>MOLECULE
ASD01810774
  22   22    0    0    0
SMALL
NO_CHARGES


@<TRIPOS>ATOM
   1 C1            -0.0184     1.5028     0.0103 C.2     
   2 C2             0.0021    -0.0041     0.0020 C.3     
   3 O3             1.0236     2.1234     0.0037 O.2     
   4 N4            -1.1946     2.1607     0.0195 N.am    
   5 N5            -1.2131     3.5266     0.0270 N.3     
   6 O6             2.1127    -0.1498     1.2223 O.3     
   7 C7             1.4513    -0.4944    -0.0145 C.3     
   8 C8             1.4963    -2.0375    -0.0695 C.3     
   9 C9             2.7001    -2.4101     0.8246 C.3     
  10 C10            3.2399    -1.0480     1.3141 C.3     
  11 H11           -0.4983    -0.3791     0.8948 H       
  12 H12           -0.5153    -0.3696    -0.8850 H       
  13 H13           -2.0280     1.6644     0.0207 H       
  14 H14           -2.1599     3.8753     0.0334 H       
  15 H15           -0.6882     3.8910     0.8078 H       
  16 H16            1.9861    -0.0670    -0.8626 H       
  17 H17            0.5761    -2.4611     0.3329 H       
  18 H18            1.6598    -2.3786    -1.0918 H       
  19 H19            2.3750    -3.0179     1.6690 H       
  20 H20            3.4587    -2.9354     0.2443 H       
  21 H21            4.0502    -0.7072     0.6695 H       
  22 H22            3.5815    -1.1241     2.3463 H       
@<TRIPOS>BOND
   1    1    2 1
   2    1    3 2
   3    1    4 am
   4    2    7 1
   5    2   11 1
   6    2   12 1
   7    4    5 1
   8    4   13 1
   9    5   14 1
  10    5   15 1
  11    6    7 1
  12    6   10 1
  13    7    8 1
  14    7   16 1
  15    8    9 1
  16    8   17 1
  17    8   18 1
  18    9   10 1
  19    9   19 1
  20    9   20 1
  21   10   21 1
  22   10   22 1

#	End of record

