#	Name: ASD00311005
#	Creating user name:	WinNT
#	Creation time:	15. 06. 2019 18:34

#	Modifying user name:	WinNT
#	Modification time:	15. 06. 2019 18:34

#	Program:	/corina/corina34_cracker 3.40 0067  02.08.2006

@<TRIPOS>MOLECULE
ASD00311005
  27   28    0    0    0
SMALL
NO_CHARGES


@<TRIPOS>ATOM
   1 N1            -0.0158     1.3151     0.0093 N.ar    
   2 C2             0.0021    -0.0041     0.0020 C.ar    
   3 C3             1.1966    -0.7023    -0.0131 C.ar    
   4 C4             2.3899    -0.0025    -0.0208 C.ar    
   5 C5             2.3387     1.3970    -0.0128 C.ar    
   6 C6             1.0928     2.0258     0.0025 C.ar    
   7 C7             3.5162     3.6553    -0.0114 C.2     
   8 C8             3.5839     2.1952    -0.0199 C.2     
   9 C9             3.3450     6.4998     0.0055 C.ar    
  10 C10            4.5856     5.8533    -0.0094 C.ar    
  11 C11            4.6538     4.3845    -0.0179 C.2     
  12 C12            3.2896     7.8773     0.0129 C.ar    
  13 C13            4.4568     8.6215     0.0053 C.ar    
  14 C14            5.6886     7.9911    -0.0089 C.ar    
  15 C15            5.7623     6.6129    -0.0165 C.ar    
  16 O16            4.6652     1.6362    -0.0328 O.2     
  17 Cl17           7.3083     5.8236    -0.0344 Cl      
  18 H18           -0.9310    -0.5479     0.0084 H       
  19 H19            1.1973    -1.7823    -0.0186 H       
  20 H20            3.3367    -0.5221    -0.0323 H       
  21 H21            1.0375     3.1043     0.0088 H       
  22 H22            2.5569     4.1513     0.0001 H       
  23 H23            2.4330     5.9213     0.0066 H       
  24 H24            5.6131     3.8886    -0.0294 H       
  25 H25            2.3324     8.3774     0.0244 H       
  26 H26            4.4058     9.7003     0.0105 H       
  27 H27            6.5945     8.5790    -0.0151 H       
@<TRIPOS>BOND
   1    1    2 ar
   2    1    6 ar
   3    2    3 ar
   4    2   18 1
   5    3    4 ar
   6    3   19 1
   7    4    5 ar
   8    4   20 1
   9    5    6 ar
  10    5    8 1
  11    6   21 1
  12    7    8 1
  13    7   11 2
  14    7   22 1
  15    8   16 2
  16    9   10 ar
  17    9   12 ar
  18    9   23 1
  19   10   11 1
  20   10   15 ar
  21   11   24 1
  22   12   13 ar
  23   12   25 1
  24   13   14 ar
  25   13   26 1
  26   14   15 ar
  27   14   27 1
  28   15   17 1

#	End of record

