#	Name: ASD01510110
#	Creating user name:	WinNT
#	Creation time:	15. 06. 2019 19:21

#	Modifying user name:	WinNT
#	Modification time:	15. 06. 2019 19:21

#	Program:	/corina/corina34_cracker 3.40 0067  02.08.2006

@<TRIPOS>MOLECULE
ASD01510110
  46   48    0    0    0
SMALL
NO_CHARGES


@<TRIPOS>ATOM
   1 C1            -0.0173     1.4248     0.0099 C.3     
   2 O2             0.0021    -0.0041     0.0020 O.3     
   3 C3             0.6058    -0.6071    -1.0557 C.ar    
   4 C4             0.6609    -1.9915    -1.1277 C.ar    
   5 C5             1.2752    -2.6020    -2.2039 C.ar    
   6 C6             1.8348    -1.8347    -3.2088 C.ar    
   7 C7             1.7816    -0.4548    -3.1391 C.ar    
   8 C8             1.1630     0.1606    -2.0681 C.ar    
   9 C9             2.5043    -2.5034    -4.3817 C.3     
  10 O10            1.5429    -2.7270    -5.4150 O.3     
  11 C11            1.9857    -3.3255    -6.5492 C.ar    
  12 C12            1.0985    -3.5689    -7.5878 C.ar    
  13 C13            1.5590    -4.1808    -8.7434 C.ar    
  14 C14            2.8968    -4.5294    -8.8200 C.ar    
  15 C15            3.7320    -4.2568    -7.7426 C.ar    
  16 N16            3.2603    -3.6658    -6.6550 N.ar    
  17 N17            5.0765    -4.6028    -7.8095 N.3     
  18 C18            5.7784    -4.2297    -6.5735 C.3     
  19 C19            7.2333    -4.6977    -6.6552 C.3     
  20 N20            7.8764    -4.0876    -7.8273 N.3     
  21 C21            7.1745    -4.4606    -9.0633 C.3     
  22 C22            5.7195    -3.9926    -8.9816 C.3     
  23 C23            9.2974    -4.4532    -7.8980 C.3     
  24 H24            1.0053     1.8021     0.0021 H       
  25 H25           -0.5445     1.7859    -0.8732 H       
  26 H26           -0.5275     1.7763     0.9067 H       
  27 H27            0.2243    -2.5913    -0.3429 H       
  28 H28            1.3187    -3.6797    -2.2603 H       
  29 H29            2.2200     0.1424    -3.9249 H       
  30 H30            1.1216     1.2384    -2.0141 H       
  31 H31            3.3010    -1.8624    -4.7592 H       
  32 H32            2.9252    -3.4574    -4.0643 H       
  33 H33            0.0605    -3.2850    -7.4968 H       
  34 H34            0.8886    -4.3816    -9.5660 H       
  35 H35            3.2868    -5.0078    -9.7063 H       
  36 H36            5.7510    -3.1468    -6.4524 H       
  37 H37            5.2912    -4.7037    -5.7214 H       
  38 H38            7.7634    -4.3965    -5.7516 H       
  39 H39            7.2614    -5.7833    -6.7489 H       
  40 H40            7.6616    -3.9867    -9.9154 H       
  41 H41            7.2019    -5.5435    -9.1844 H       
  42 H42            5.1894    -4.2938    -9.8852 H       
  43 H43            5.6915    -2.9070    -8.8879 H       
  44 H44            9.3905    -5.5367    -7.9727 H       
  45 H45            9.7490    -3.9885    -8.7745 H       
  46 H46            9.8071    -4.1058    -6.9993 H       
@<TRIPOS>BOND
   1    1    2 1
   2    1   24 1
   3    1   25 1
   4    1   26 1
   5    2    3 1
   6    3    4 ar
   7    3    8 ar
   8    4    5 ar
   9    4   27 1
  10    5    6 ar
  11    5   28 1
  12    6    7 ar
  13    6    9 1
  14    7    8 ar
  15    7   29 1
  16    8   30 1
  17    9   10 1
  18    9   31 1
  19    9   32 1
  20   10   11 1
  21   11   12 ar
  22   11   16 ar
  23   12   13 ar
  24   12   33 1
  25   13   14 ar
  26   13   34 1
  27   14   15 ar
  28   14   35 1
  29   15   16 ar
  30   15   17 1
  31   17   18 1
  32   17   22 1
  33   18   19 1
  34   18   36 1
  35   18   37 1
  36   19   20 1
  37   19   38 1
  38   19   39 1
  39   20   21 1
  40   20   23 1
  41   21   22 1
  42   21   40 1
  43   21   41 1
  44   22   42 1
  45   22   43 1
  46   23   44 1
  47   23   45 1
  48   23   46 1

#	End of record

