#	Name: ASD03090940
#	Creating user name:	WinNT
#	Creation time:	15. 06. 2019 20:29

#	Modifying user name:	WinNT
#	Modification time:	15. 06. 2019 20:29

#	Program:	/corina/corina34_cracker 3.40 0067  02.08.2006

@<TRIPOS>MOLECULE
ASD03090940
  52   55    0    0    0
SMALL
NO_CHARGES


@<TRIPOS>ATOM
   1 N1            -0.0639     1.4029     0.1292 N.am    
   2 C2            -0.0203     0.0566     0.0833 C.2     
   3 O3             1.0540    -0.5170     0.0336 O.2     
   4 N4            -1.1547    -0.6491     0.0922 N.2     
   5 C5             1.1800     2.1768     0.1194 C.3     
   6 C6             1.2105     3.1087     1.3325 C.3     
   7 C7             1.2528     2.9947    -1.1443 C.ar    
   8 C8             1.7416     4.2871    -1.1039 C.ar    
   9 C9             1.8084     5.0374    -2.2630 C.ar    
  10 C10            1.3868     4.4950    -3.4626 C.ar    
  11 C11            0.8989     3.2023    -3.5031 C.ar    
  12 C12            0.8361     2.4505    -2.3447 C.ar    
  13 S13            0.2941    -2.9707    -0.0256 S.3     
  14 C14           -1.1117    -1.9787     0.0468 C.2     
  15 N15           -2.1665    -2.8323     0.0486 N.pl3   
  16 C16           -1.8822    -4.1630    -0.0032 C.2     
  17 C17           -0.6003    -4.5002    -0.0506 C.2     
  18 O18           -7.3755    -0.9672     0.2648 O.3     
  19 C19           -8.4227    -1.9123     0.0202 C.3     
  20 C20           -8.1259    -3.1794     0.8336 C.3     
  21 O21           -6.8613    -3.6988     0.4082 O.3     
  22 C22           -5.8429    -2.8043     0.2838 C.ar    
  23 C23           -6.0994    -1.4397     0.2101 C.ar    
  24 C24           -4.5369    -3.2654     0.2310 C.ar    
  25 C25           -3.4876    -2.3659     0.1018 C.ar    
  26 C26           -3.7469    -1.0044     0.0257 C.ar    
  27 C27           -5.0485    -0.5442     0.0798 C.ar    
  28 F28           -8.0724    -2.8640     2.1955 F       
  29 F29           -9.1267    -4.1304     0.6076 F       
  30 F30           -9.6493    -1.3713     0.4202 F       
  31 F31           -8.4665    -2.2258    -1.3425 F       
  32 C32           -0.0253    -5.8918    -0.1122 C.3     
  33 C33           -1.3553     2.0926     0.1828 C.3     
  34 H34            2.0311     1.4972     0.1619 H       
  35 H35            0.3593     3.7883     1.2900 H       
  36 H36            1.1578     2.5171     2.2465 H       
  37 H37            2.1359     3.6844     1.3252 H       
  38 H38            2.0710     4.7108    -0.1666 H       
  39 H39            2.1896     6.0473    -2.2313 H       
  40 H40            1.4383     5.0814    -4.3680 H       
  41 H41            0.5692     2.7787    -4.4403 H       
  42 H42            0.4584     1.4393    -2.3771 H       
  43 H43           -2.6636    -4.9085    -0.0057 H       
  44 H44           -4.3356    -4.3248     0.2895 H       
  45 H45           -2.9308    -0.3045    -0.0758 H       
  46 H46           -5.2481     0.5155     0.0202 H       
  47 H47            1.0629    -5.8343    -0.1404 H       
  48 H48           -0.3368    -6.4530     0.7687 H       
  49 H49           -0.3859    -6.3945    -1.0096 H       
  50 H50           -1.6943     2.1492     1.2172 H       
  51 H51           -1.2462     3.0998    -0.2194 H       
  52 H52           -2.0861     1.5420    -0.4095 H       
@<TRIPOS>BOND
   1    1    2 am
   2    1    5 1
   3    1   33 1
   4    2    3 2
   5    2    4 1
   6    4   14 2
   7    5    6 1
   8    5    7 1
   9    5   34 1
  10    6   35 1
  11    6   36 1
  12    6   37 1
  13    7    8 ar
  14    7   12 ar
  15    8    9 ar
  16    8   38 1
  17    9   10 ar
  18    9   39 1
  19   10   11 ar
  20   10   40 1
  21   11   12 ar
  22   11   41 1
  23   12   42 1
  24   13   14 1
  25   13   17 1
  26   14   15 1
  27   15   16 1
  28   15   25 1
  29   16   17 2
  30   16   43 1
  31   17   32 1
  32   18   19 1
  33   18   23 1
  34   19   20 1
  35   19   30 1
  36   19   31 1
  37   20   21 1
  38   20   28 1
  39   20   29 1
  40   21   22 1
  41   22   23 ar
  42   22   24 ar
  43   23   27 ar
  44   24   25 ar
  45   24   44 1
  46   25   26 ar
  47   26   27 ar
  48   26   45 1
  49   27   46 1
  50   32   47 1
  51   32   48 1
  52   32   49 1
  53   33   50 1
  54   33   51 1
  55   33   52 1

#	End of record

