#	Name: ASD01230218
#	Creating user name:	WinNT
#	Creation time:	15. 06. 2019 19:12

#	Modifying user name:	WinNT
#	Modification time:	15. 06. 2019 19:12

#	Program:	/corina/corina34_cracker 3.40 0067  02.08.2006

@<TRIPOS>MOLECULE
ASD01230218
  38   40    0    0    0
SMALL
NO_CHARGES


@<TRIPOS>ATOM
   1 C1            -0.4151     1.9596     0.2465 C.3     
   2 C2            -0.6225     0.5560    -0.2673 C.2     
   3 C3             0.0577     0.1324    -1.3522 C.2     
   4 C4             1.0272     1.0161    -1.9985 C.2     
   5 C5             1.4369     2.1305    -1.3635 C.2     
   6 N6             0.9419     2.4008    -0.0964 N.pl3   
   7 N7            -1.3959     2.8598    -0.3745 N.3     
   8 C8            -1.5636    -0.3481     0.4137 C.ar    
   9 C9            -1.0934    -1.5032     1.0467 C.ar    
  10 C10           -1.9786    -2.3462     1.6827 C.ar    
  11 C11           -3.3358    -2.0508     1.6955 C.ar    
  12 C12           -3.8079    -0.9049     1.0683 C.ar    
  13 C13           -2.9303    -0.0520     0.4348 C.ar    
  14 O14           -4.2047    -2.8859     2.3233 O.3     
  15 C15           -5.0084    -5.1126    -0.4394 C.ar    
  16 C16           -4.4023    -4.0958     0.2696 C.ar    
  17 C17           -4.7778    -3.8757     1.5926 C.ar    
  18 C18           -5.7563    -4.6979     2.1470 C.ar    
  19 C19           -6.3142    -5.6931     1.3716 C.ar    
  20 N20           -5.9318    -5.8705     0.1209 N.ar    
  21 C21           -4.6151    -5.3567    -1.8736 C.3     
  22 F22           -3.5560    -6.2695    -1.9179 F       
  23 F23           -5.7084    -5.8764    -2.5749 F       
  24 F24           -4.2161    -4.1505    -2.4594 F       
  25 Cl25           1.6463     0.6305    -3.5739 Cl      
  26 H26           -0.5403     1.9736     1.3292 H       
  27 H27           -0.1139    -0.8593    -1.7439 H       
  28 H28            2.1394     2.8029    -1.8332 H       
  29 H29            1.4845     2.8742     0.5535 H       
  30 H30           -1.2769     3.8063    -0.0458 H       
  31 H31           -1.3397     2.8168    -1.3810 H       
  32 H32           -0.0385    -1.7341     1.0368 H       
  33 H33           -1.6165    -3.2385     2.1719 H       
  34 H34           -4.8641    -0.6798     1.0807 H       
  35 H35           -3.2977     0.8413    -0.0485 H       
  36 H36           -3.6469    -3.4793    -0.1948 H       
  37 H37           -6.0736    -4.5583     3.1699 H       
  38 H38           -7.0732    -6.3353     1.7933 H       
@<TRIPOS>BOND
   1    1    2 1
   2    1    6 1
   3    1    7 1
   4    1   26 1
   5    2    3 2
   6    2    8 1
   7    3    4 1
   8    3   27 1
   9    4    5 2
  10    4   25 1
  11    5    6 1
  12    5   28 1
  13    6   29 1
  14    7   30 1
  15    7   31 1
  16    8    9 ar
  17    8   13 ar
  18    9   10 ar
  19    9   32 1
  20   10   11 ar
  21   10   33 1
  22   11   12 ar
  23   11   14 1
  24   12   13 ar
  25   12   34 1
  26   13   35 1
  27   14   17 1
  28   15   16 ar
  29   15   20 ar
  30   15   21 1
  31   16   17 ar
  32   16   36 1
  33   17   18 ar
  34   18   19 ar
  35   18   37 1
  36   19   20 ar
  37   19   38 1
  38   21   22 1
  39   21   23 1
  40   21   24 1

#	End of record

