#	Name: ASD04882324
#	Creating user name:	WinNT
#	Creation time:	15. 06. 2019 20:54

#	Modifying user name:	WinNT
#	Modification time:	15. 06. 2019 20:54

#	Program:	/corina/corina34_cracker 3.40 0067  02.08.2006

@<TRIPOS>MOLECULE
ASD04882324
  83   88    0    0    0
SMALL
NO_CHARGES


@<TRIPOS>ATOM
   1 N1            -0.0169     1.3970     0.0097 N.am    
   2 C2             0.1097     0.0022    -0.0340 C.ar    
   3 C3            -1.0276    -0.8061     0.0459 C.ar    
   4 C4            -0.9035    -2.1901     0.0027 C.ar    
   5 C5             0.3398    -2.7696    -0.1194 C.ar    
   6 C6             1.4813    -1.9670    -0.2002 C.ar    
   7 C7             1.3588    -0.5752    -0.1618 C.ar    
   8 N8            -2.2868    -0.2245     0.1694 N.3     
   9 C9            -3.1529    -0.5994    -0.9570 C.3     
  10 C10           -2.9095    -0.5838     1.4511 C.3     
  11 C11           -4.2532     0.1371     1.5823 C.3     
  12 N12           -5.1193    -0.2379     0.4558 N.3     
  13 C13           -4.4966     0.1215    -0.8259 C.3     
  14 C14            2.8131    -2.5880    -0.3310 C.2     
  15 O15            3.8056    -1.8890    -0.4013 O.2     
  16 C16            0.9210     2.1770    -0.5632 C.2     
  17 C17            0.7440     3.6400    -0.5949 C.2     
  18 O18            1.9136     1.6738    -1.0541 O.2     
  19 N19            2.9297    -3.9301    -0.3727 N.am    
  20 N20           -0.3086     4.3381    -0.0886 N.2     
  21 C21           -0.1071     5.6030    -0.3070 C.2     
  22 O22            1.0592     5.7603    -0.9489 O.3     
  23 C23            1.6053     4.5473    -1.1309 C.2     
  24 C24           -1.0379     6.7173     0.0970 C.3     
  25 C25           -0.4922     7.7832     1.0493 C.3     
  26 C26           -0.7267     8.1217    -0.4243 C.3     
  27 C27            4.2523    -4.5467    -0.5026 C.3     
  28 C28            4.1050    -6.0695    -0.5254 C.3     
  29 C29            5.4862    -6.7135    -0.6611 C.3     
  30 C30           -6.3823     0.3456     0.5797 C.ar    
  31 C31           -6.5091     1.7280     0.6236 C.ar    
  32 C32           -7.5150    -0.4555     0.6536 C.ar    
  33 C33           -8.7621     0.1246     0.7761 C.ar    
  34 C34           -8.8844     1.5014     0.8248 C.ar    
  35 C35           -7.7596     2.3016     0.7462 C.ar    
  36 N36            5.3451    -8.1715    -0.6829 N.am    
  37 C37          -10.2472     2.1309     0.9575 C.3     
  38 C38           -7.3829    -1.9557     0.5996 C.3     
  39 C39            5.1601    -8.9674    -1.9021 C.3     
  40 C40            5.3743    -8.9528     0.4105 C.2     
  41 C41            5.1889   -10.4023     0.0193 C.3     
  42 C42            4.6327   -10.3382    -1.4233 C.3     
  43 O43            5.5277    -8.5538     1.5455 O.2     
  44 H44           -0.7817     1.8010     0.4488 H       
  45 H45           -1.7841    -2.8123     0.0653 H       
  46 H46            0.4330    -3.8451    -0.1524 H       
  47 H47            2.2391     0.0475    -0.2240 H       
  48 H48           -2.6759    -0.3119    -1.8940 H       
  49 H49           -3.3159    -1.6771    -0.9474 H       
  50 H50           -3.0697    -1.6613     1.4881 H       
  51 H51           -2.2550    -0.2848     2.2699 H       
  52 H52           -4.7302    -0.1505     2.5192 H       
  53 H53           -4.0902     1.2148     1.5726 H       
  54 H54           -4.3364     1.1990    -0.8629 H       
  55 H55           -5.1511    -0.1775    -1.6446 H       
  56 H56            2.1380    -4.4877    -0.3166 H       
  57 H57            2.5458     4.3321    -1.6163 H       
  58 H58           -2.0868     6.4394     0.2004 H       
  59 H59           -1.1822     8.2069     1.7789 H       
  60 H60            0.5400     7.6786     1.3836 H       
  61 H61            0.1512     8.2397    -1.0594 H       
  62 H62           -1.5710     8.7680    -0.6641 H       
  63 H63            4.7194    -4.2130    -1.4291 H       
  64 H64            4.8741    -4.2545     0.3436 H       
  65 H65            3.6379    -6.4032     0.4011 H       
  66 H66            3.4831    -6.3617    -1.3716 H       
  67 H67            5.9533    -6.3797    -1.5876 H       
  68 H68            6.1080    -6.4212     0.1851 H       
  69 H69           -5.6310     2.3536     0.5623 H       
  70 H70           -9.6431    -0.4975     0.8335 H       
  71 H71           -7.8586     3.3764     0.7846 H       
  72 H72          -10.4892     2.2541     2.0131 H       
  73 H73          -10.2465     3.1051     0.4687 H       
  74 H74          -10.9915     1.4887     0.4866 H       
  75 H75           -7.2637    -2.3465     1.6101 H       
  76 H76           -8.2780    -2.3833     0.1479 H       
  77 H77           -6.5114    -2.2224     0.0017 H       
  78 H78            4.4307    -8.4904    -2.5568 H       
  79 H79            6.1109    -9.0893    -2.4209 H       
  80 H80            6.1443   -10.9267     0.0340 H       
  81 H81            4.4754   -10.8887     0.6845 H       
  82 H82            3.5429   -10.3585    -1.4225 H       
  83 H83            5.0360   -11.1466    -2.0331 H       
@<TRIPOS>BOND
   1    1    2 1
   2    1   16 am
   3    1   44 1
   4    2    3 ar
   5    2    7 ar
   6    3    4 ar
   7    3    8 1
   8    4    5 ar
   9    4   45 1
  10    5    6 ar
  11    5   46 1
  12    6    7 ar
  13    6   14 1
  14    7   47 1
  15    8    9 1
  16    8   10 1
  17    9   13 1
  18    9   48 1
  19    9   49 1
  20   10   11 1
  21   10   50 1
  22   10   51 1
  23   11   12 1
  24   11   52 1
  25   11   53 1
  26   12   13 1
  27   12   30 1
  28   13   54 1
  29   13   55 1
  30   14   15 2
  31   14   19 am
  32   16   18 2
  33   16   17 1
  34   17   20 1
  35   17   23 2
  36   19   27 1
  37   19   56 1
  38   20   21 2
  39   21   22 1
  40   21   24 1
  41   22   23 1
  42   23   57 1
  43   24   25 1
  44   24   26 1
  45   24   58 1
  46   25   26 1
  47   25   59 1
  48   25   60 1
  49   26   61 1
  50   26   62 1
  51   27   28 1
  52   27   63 1
  53   27   64 1
  54   28   29 1
  55   28   65 1
  56   28   66 1
  57   29   36 1
  58   29   67 1
  59   29   68 1
  60   30   31 ar
  61   30   32 ar
  62   31   35 ar
  63   31   69 1
  64   32   33 ar
  65   32   38 1
  66   33   34 ar
  67   33   70 1
  68   34   35 ar
  69   34   37 1
  70   35   71 1
  71   36   39 1
  72   36   40 am
  73   37   72 1
  74   37   73 1
  75   37   74 1
  76   38   75 1
  77   38   76 1
  78   38   77 1
  79   39   42 1
  80   39   78 1
  81   39   79 1
  82   40   41 1
  83   40   43 2
  84   41   42 1
  85   41   80 1
  86   41   81 1
  87   42   82 1
  88   42   83 1

#	End of record

