#	Name: ASD04880488
#	Creating user name:	WinNT
#	Creation time:	15. 06. 2019 20:53

#	Modifying user name:	WinNT
#	Modification time:	15. 06. 2019 20:53

#	Program:	/corina/corina34_cracker 3.40 0067  02.08.2006

@<TRIPOS>MOLECULE
ASD04880488
  41   43    0    0    0
SMALL
NO_CHARGES


@<TRIPOS>ATOM
   1 C1             0.4090     1.9357    -0.4047 C.3     
   2 S2             0.0784     0.1744    -0.1233 S.o2    
   3 O3             0.7775    -0.2869     1.0247 O.2     
   4 O4            -1.3024    -0.1087    -0.3031 O.2     
   5 N5             0.8208    -0.5928    -1.3892 N.am    
   6 C6             2.1916    -0.4414    -1.5885 C.ar    
   7 C7             2.7114    -0.3706    -2.8905 C.ar    
   8 C8             4.0870    -0.2189    -3.0767 C.ar    
   9 C9             4.9244    -0.1396    -1.9835 C.ar    
  10 C10            4.4082    -0.2103    -0.7009 C.ar    
  11 C11            3.0484    -0.3541    -0.5012 C.ar    
  12 N12           -0.0838    -0.7150    -5.2415 N.am    
  13 N13            0.5436    -0.6831    -3.9978 N.2     
  14 C14            1.8113    -0.4564    -4.0535 C.2     
  15 C15            2.2318    -0.2913    -5.4964 C.3     
  16 C16            0.9215    -0.4720    -6.2882 C.3     
  17 C17           -1.3963    -0.9379    -5.4519 C.2     
  18 C18           -1.9116    -1.0707    -6.8307 C.ar    
  19 C19           -3.2358    -1.4542    -7.0500 C.ar    
  20 C20           -3.7108    -1.5764    -8.3417 C.ar    
  21 C21           -2.8748    -1.3194    -9.4168 C.ar    
  22 C22           -1.5622    -0.9393    -9.2041 C.ar    
  23 C23           -1.0778    -0.8077    -7.9188 C.ar    
  24 O24           -2.1565    -1.0298    -4.5072 O.2     
  25 F25           -4.9920    -1.9473    -8.5570 F       
  26 H26            1.4854     2.1071    -0.4096 H       
  27 H27           -0.0110     2.2353    -1.3649 H       
  28 H28           -0.0488     2.5230     0.3913 H       
  29 H29            0.3015    -1.1476    -1.9920 H       
  30 H30            4.4946    -0.1640    -4.0753 H       
  31 H31            5.9882    -0.0223    -2.1289 H       
  32 H32            5.0717    -0.1476     0.1489 H       
  33 H33            2.6528    -0.4032     0.5025 H       
  34 H34            2.6450     0.7035    -5.6628 H       
  35 H35            2.9550    -1.0581    -5.7740 H       
  36 H36            0.9931    -1.3291    -6.9577 H       
  37 H37            0.6828     0.4332    -6.8465 H       
  38 H38           -3.8872    -1.6551    -6.2123 H       
  39 H39           -3.2498    -1.4168   -10.4249 H       
  40 H40           -0.9157    -0.7409   -10.0462 H       
  41 H41           -0.0538    -0.5061    -7.7549 H       
@<TRIPOS>BOND
   1    1    2 1
   2    1   26 1
   3    1   27 1
   4    1   28 1
   5    2    3 2
   6    2    4 2
   7    2    5 am
   8    5    6 1
   9    5   29 1
  10    6    7 ar
  11    6   11 ar
  12    7    8 ar
  13    7   14 1
  14    8    9 ar
  15    8   30 1
  16    9   10 ar
  17    9   31 1
  18   10   11 ar
  19   10   32 1
  20   11   33 1
  21   12   13 1
  22   12   16 1
  23   12   17 am
  24   13   14 2
  25   14   15 1
  26   15   16 1
  27   15   34 1
  28   15   35 1
  29   16   36 1
  30   16   37 1
  31   17   18 1
  32   17   24 2
  33   18   19 ar
  34   18   23 ar
  35   19   20 ar
  36   19   38 1
  37   20   21 ar
  38   20   25 1
  39   21   22 ar
  40   21   39 1
  41   22   23 ar
  42   22   40 1
  43   23   41 1

#	End of record

