#	Name: ASD03200057
#	Creating user name:	WinNT
#	Creation time:	15. 06. 2019 20:34

#	Modifying user name:	WinNT
#	Modification time:	15. 06. 2019 20:34

#	Program:	/corina/corina34_cracker 3.40 0067  02.08.2006

@<TRIPOS>MOLECULE
ASD03200057
  50   53    0    0    0
SMALL
NO_CHARGES


@<TRIPOS>ATOM
   1 C1             1.0055    -1.1199    -0.1418 C.3     
   2 N2             0.0260    -0.0399     0.0335 N.3     
   3 C3             0.3747     0.8126     1.1772 C.3     
   4 C4             1.7336     1.4712     0.9287 C.3     
   5 C5             2.7946     0.3841     0.7364 C.3     
   6 C6             2.3832    -0.5190    -0.4297 C.3     
   7 C7            -1.2637    -0.5520     0.1670 C.ar    
   8 C8            -1.9633    -0.4241     1.3644 C.ar    
   9 C9            -3.2385    -0.9441     1.4566 C.ar    
  10 N10           -3.7980    -1.5568     0.4305 N.ar    
  11 C11           -3.1725    -1.7010    -0.7227 C.ar    
  12 C12           -1.8923    -1.2035    -0.9009 C.ar    
  13 N13           -1.2326    -1.3589    -2.1275 N.am    
  14 C14           -1.4288    -2.4718    -2.8620 C.2     
  15 C15           -0.6712    -2.6759    -4.0993 C.2     
  16 O16           -2.2356    -3.3075    -2.4973 O.2     
  17 C17           -0.8967    -3.7398    -4.9449 C.2     
  18 S18            0.2205    -3.6044    -6.3005 S.3     
  19 C19            0.8919    -2.1306    -5.6119 C.2     
  20 N20            0.2896    -1.8443    -4.5029 N.2     
  21 C21            1.9807    -1.3335    -6.2148 C.ar    
  22 N22           -1.8331    -4.7374    -4.7618 N.pl3   
  23 C23            2.3605    -0.1178    -5.6416 C.ar    
  24 N24            2.0916     2.3073     2.0822 N.3     
  25 C25            2.6385    -1.7950    -7.3572 C.ar    
  26 C26            3.6548    -1.0448    -7.9151 C.ar    
  27 C27            4.0219     0.1611    -7.3452 C.ar    
  28 C28            3.3787     0.6217    -6.2104 C.ar    
  29 Cl29           1.5543     0.4624    -4.2178 Cl      
  30 Cl30           2.1799    -3.3083    -8.0736 Cl      
  31 H31            1.0532    -1.7182     0.7680 H       
  32 H32            0.7034    -1.7521    -0.9767 H       
  33 H33           -0.3856     1.5839     1.3004 H       
  34 H34            0.4253     0.2052     2.0809 H       
  35 H35            1.6798     2.0897     0.0328 H       
  36 H36            3.7559     0.8482     0.5161 H       
  37 H37            2.8761    -0.2104     1.6463 H       
  38 H38            3.1130    -1.3204    -0.5444 H       
  39 H39            2.3396     0.0683    -1.3470 H       
  40 H40           -1.5138     0.0754     2.2099 H       
  41 H41           -3.7863    -0.8485     2.3825 H       
  42 H42           -3.6660    -2.2094    -1.5379 H       
  43 H43           -0.6348    -0.6654    -2.4480 H       
  44 H44           -2.4061    -4.7270    -3.9792 H       
  45 H45           -1.9181    -5.4487    -5.4157 H       
  46 H46            3.0201     2.6883     1.9783 H       
  47 H47            1.4132     3.0411     2.2214 H       
  48 H48            4.1646    -1.4007    -8.7982 H       
  49 H49            4.8177     0.7434    -7.7856 H       
  50 H50            3.6704     1.5641    -5.7709 H       
@<TRIPOS>BOND
   1    1    2 1
   2    1    6 1
   3    1   31 1
   4    1   32 1
   5    2    3 1
   6    2    7 1
   7    3    4 1
   8    3   33 1
   9    3   34 1
  10    4    5 1
  11    4   24 1
  12    4   35 1
  13    5    6 1
  14    5   36 1
  15    5   37 1
  16    6   38 1
  17    6   39 1
  18    7    8 ar
  19    7   12 ar
  20    8    9 ar
  21    8   40 1
  22    9   10 ar
  23    9   41 1
  24   10   11 ar
  25   11   12 ar
  26   11   42 1
  27   12   13 1
  28   13   14 am
  29   13   43 1
  30   14   15 1
  31   14   16 2
  32   15   17 2
  33   15   20 1
  34   17   18 1
  35   17   22 1
  36   18   19 1
  37   19   20 2
  38   19   21 1
  39   21   25 ar
  40   21   23 ar
  41   22   44 1
  42   22   45 1
  43   23   29 1
  44   23   28 ar
  45   24   46 1
  46   24   47 1
  47   25   26 ar
  48   25   30 1
  49   26   27 ar
  50   26   48 1
  51   27   28 ar
  52   27   49 1
  53   28   50 1

#	End of record

