#	Name: ASD05430642
#	Creating user name:	WinNT
#	Creation time:	15. 06. 2019 21:00

#	Modifying user name:	WinNT
#	Modification time:	15. 06. 2019 21:00

#	Program:	/corina/corina34_cracker 3.40 0067  02.08.2006

@<TRIPOS>MOLECULE
ASD05430642
  32   34    0    0    0
SMALL
NO_CHARGES


@<TRIPOS>ATOM
   1 C1            -0.0168     1.3877     0.0097 C.ar    
   2 C2             0.0021    -0.0041     0.0020 C.ar    
   3 C3             1.2141    -0.6750    -0.0132 C.ar    
   4 C4             2.4065     0.0311    -0.0208 C.ar    
   5 C5             2.4031     1.4085    -0.0129 C.ar    
   6 C6             1.1904     2.1007     0.0020 C.ar    
   7 C7             3.7053     2.1669    -0.0203 C.3     
   8 C8             4.5202     1.7931     1.2196 C.3     
   9 C9             4.4977     1.8074    -1.2787 C.3     
  10 N10           -1.2011    -0.7243     0.0101 N.pl3   
  11 C11           -1.3404    -2.0641     0.0043 C.2     
  12 N12           -2.5008    -0.1925     0.0321 N.2     
  13 C13           -3.3248    -1.2078     0.0328 C.2     
  14 N14           -2.6199    -2.3385     0.0160 N.2     
  15 C15           -4.8288    -1.1143     0.0539 C.3     
  16 N16            0.8602     3.4207     0.0118 N.2     
  17 C17           -0.4344     3.5283     0.0236 C.2     
  18 O18           -1.0022     2.3122     0.0186 O.3     
  19 H19            1.2297    -1.7549    -0.0188 H       
  20 H20            3.3454    -0.5025    -0.0326 H       
  21 H21            3.5022     3.2377    -0.0123 H       
  22 H22            3.9557     2.0492     2.1162 H       
  23 H23            4.7233     0.7222     1.2117 H       
  24 H24            5.4621     2.3416     1.2143 H       
  25 H25            3.9172     2.0736    -2.1620 H       
  26 H26            5.4397     2.3559    -1.2841 H       
  27 H27            4.7008     0.7365    -1.2867 H       
  28 H28           -0.5369    -2.7856    -0.0079 H       
  29 H29           -5.2051    -1.0814    -0.9685 H       
  30 H30           -5.2398    -1.9852     0.5645 H       
  31 H31           -5.1291    -0.2088     0.5811 H       
  32 H32           -0.9762     4.4626     0.0335 H       
@<TRIPOS>BOND
   1    1    2 ar
   2    1    6 ar
   3    1   18 1
   4    2    3 ar
   5    2   10 1
   6    3    4 ar
   7    3   19 1
   8    4    5 ar
   9    4   20 1
  10    5    6 ar
  11    5    7 1
  12    6   16 1
  13    7    8 1
  14    7    9 1
  15    7   21 1
  16    8   22 1
  17    8   23 1
  18    8   24 1
  19    9   25 1
  20    9   26 1
  21    9   27 1
  22   10   11 1
  23   10   12 1
  24   11   14 2
  25   11   28 1
  26   12   13 2
  27   13   14 1
  28   13   15 1
  29   15   29 1
  30   15   30 1
  31   15   31 1
  32   16   17 2
  33   17   18 1
  34   17   32 1

#	End of record

