#	Name: ASD03320035
#	Creating user name:	WinNT
#	Creation time:	15. 06. 2019 20:36

#	Modifying user name:	WinNT
#	Modification time:	15. 06. 2019 20:36

#	Program:	/corina/corina34_cracker 3.40 0067  02.08.2006

@<TRIPOS>MOLECULE
ASD03320035
  60   64    0    0    0
SMALL
NO_CHARGES


@<TRIPOS>ATOM
   1 C1            -0.0872     0.3385     0.8212 C.ar    
   2 C2            -0.0294    -1.0432     0.6400 C.ar    
   3 C3             1.0697     1.0854     0.7988 C.ar    
   4 C4             2.3010     0.4589     0.5946 C.ar    
   5 C5             2.3578    -0.9246     0.4133 C.ar    
   6 C6             1.1997    -1.6699     0.4360 C.ar    
   7 C7             3.5433     1.2597     0.5699 C.2     
   8 N8             3.5718     2.4394    -0.0812 N.am    
   9 O9             4.5391     0.8543     1.1370 O.2     
  10 C10           -1.2759    -1.8467     0.6648 C.ar    
  11 C11           -1.2310    -3.2267     0.4852 C.ar    
  12 C12           -2.4322    -3.9355     0.5179 C.ar    
  13 N13           -3.5676    -3.2719     0.7180 N.ar    
  14 C14           -3.5677    -1.9643     0.8839 C.ar    
  15 N15           -2.4566    -1.2591     0.8651 N.ar    
  16 N16           -2.4425    -5.3110     0.3440 N.pl3   
  17 C17           -3.6355    -6.0262     0.4944 C.ar    
  18 C18           -3.8515    -7.1810    -0.2456 C.ar    
  19 C19           -5.0319    -7.8863    -0.0951 C.ar    
  20 C20           -5.9981    -7.4396     0.7936 C.ar    
  21 C21           -5.7829    -6.2883     1.5315 C.ar    
  22 C22           -4.6027    -5.5850     1.3883 C.ar    
  23 C23            4.7620     3.2993    -0.0195 C.3     
  24 C24            5.2258     3.5977    -1.4506 C.3     
  25 N25            4.0674     4.0470    -2.2355 N.am    
  26 C26            2.8772     3.1871    -2.2973 C.3     
  27 C27            2.4155     2.8860    -0.8708 C.3     
  28 C28            4.0959     5.2266    -2.8867 C.2     
  29 C29            5.3386     6.0242    -2.9158 C.ar    
  30 O30            3.0987     5.6342    -3.4501 O.2     
  31 C31            5.3137     7.3769    -2.5627 C.ar    
  32 C32            6.4824     8.1162    -2.5924 C.ar    
  33 C33            7.6708     7.5201    -2.9697 C.ar    
  34 C34            7.7010     6.1810    -3.3204 C.ar    
  35 C35            6.5455     5.4297    -3.2907 C.ar    
  36 F36            4.1521     7.9599    -2.1942 F       
  37 F37           -5.2436    -9.0101    -0.8144 F       
  38 F38           -7.1510    -8.1287     0.9392 F       
  39 H39           -1.0400     0.8234     0.9746 H       
  40 H40            1.0247     2.1553     0.9388 H       
  41 H41            3.3095    -1.4100     0.2550 H       
  42 H42            1.2435    -2.7398     0.2958 H       
  43 H43           -0.2916    -3.7348     0.3245 H       
  44 H44           -4.5075    -1.4567     1.0438 H       
  45 H45           -1.6226    -5.7775     0.1181 H       
  46 H46           -3.0990    -7.5280    -0.9381 H       
  47 H47           -6.5368    -5.9420     2.2228 H       
  48 H48           -4.4359    -4.6871     1.9648 H       
  49 H49            4.5135     4.2321     0.4866 H       
  50 H50            5.5562     2.7863     0.5230 H       
  51 H51            5.9826     4.3819    -1.4338 H       
  52 H52            5.6415     2.6941    -1.8964 H       
  53 H53            2.0830     3.7001    -2.8397 H       
  54 H54            3.1257     2.2542    -2.8034 H       
  55 H55            1.6587     2.1018    -0.8890 H       
  56 H56            1.9999     3.7885    -0.4226 H       
  57 H57            6.4662     9.1613    -2.3204 H       
  58 H58            8.5804     8.1018    -2.9916 H       
  59 H59            8.6336     5.7224    -3.6142 H       
  60 H60            6.5719     4.3854    -3.5647 H       
@<TRIPOS>BOND
   1    1    2 ar
   2    1    3 ar
   3    1   39 1
   4    2   10 1
   5    2    6 ar
   6    3    4 ar
   7    3   40 1
   8    4    5 ar
   9    4    7 1
  10    5    6 ar
  11    5   41 1
  12    6   42 1
  13    7    8 am
  14    7    9 2
  15    8   23 1
  16    8   27 1
  17   10   11 ar
  18   10   15 ar
  19   11   12 ar
  20   11   43 1
  21   12   13 ar
  22   12   16 1
  23   13   14 ar
  24   14   15 ar
  25   14   44 1
  26   16   17 1
  27   16   45 1
  28   17   18 ar
  29   17   22 ar
  30   18   19 ar
  31   18   46 1
  32   19   20 ar
  33   19   37 1
  34   20   21 ar
  35   20   38 1
  36   21   22 ar
  37   21   47 1
  38   22   48 1
  39   23   24 1
  40   23   49 1
  41   23   50 1
  42   24   25 1
  43   24   51 1
  44   24   52 1
  45   25   26 1
  46   25   28 am
  47   26   27 1
  48   26   53 1
  49   26   54 1
  50   27   55 1
  51   27   56 1
  52   28   29 1
  53   28   30 2
  54   29   31 ar
  55   29   35 ar
  56   31   32 ar
  57   31   36 1
  58   32   33 ar
  59   32   57 1
  60   33   34 ar
  61   33   58 1
  62   34   35 ar
  63   34   59 1
  64   35   60 1

#	End of record

