#	Name: ASD05323014
#	Creating user name:	WinNT
#	Creation time:	15. 06. 2019 20:59

#	Modifying user name:	WinNT
#	Modification time:	15. 06. 2019 20:59

#	Program:	/corina/corina34_cracker 3.40 0067  02.08.2006

@<TRIPOS>MOLECULE
ASD05323014
  49   51    0    0    0
SMALL
NO_CHARGES


@<TRIPOS>ATOM
   1 C1            -0.0187     1.5258     0.0104 C.3     
   2 C2             0.0021    -0.0041     0.0020 C.3     
   3 P3             1.6916     2.1568    -0.0025 P.3     
   4 O4             2.4039     1.7481    -1.3873 O.3     
   5 O5             1.6730     3.7605     0.1386 O.3     
   6 O6             2.4423     1.5705     1.1303 O.2     
   7 O7            -2.1040    -0.1936    -1.2201 O.3     
   8 C8            -1.4333    -0.5336     0.0129 C.3     
   9 C9            -1.4365    -2.0780     0.0510 C.3     
  10 C10           -2.6298    -2.4732    -0.8473 C.3     
  11 C11           -3.2065    -1.1210    -1.3219 C.3     
  12 O12           -3.6052    -3.1969    -0.0944 O.3     
  13 O13           -1.6384    -2.5455     1.3862 O.3     
  14 C14           -2.7750    -1.5107    -3.6752 C.2     
  15 N15           -3.1381    -1.6142    -4.9657 N.am    
  16 C16           -4.4243    -1.4258    -5.3286 C.2     
  17 C17           -5.4108    -1.1073    -4.2878 C.2     
  18 C18           -4.9823    -1.0157    -2.9968 C.2     
  19 N19           -3.6629    -1.2203    -2.7105 N.am    
  20 C20           -6.8365    -0.8904    -4.6327 C.ar    
  21 C21           -7.2071     0.1936    -5.4270 C.ar    
  22 C22           -9.4986    -0.4850    -5.2763 C.ar    
  23 C23           -7.8107    -1.7728    -4.1687 C.ar    
  24 C24           -8.5355     0.3905    -5.7448 C.ar    
  25 C25           -9.1360    -1.5659    -4.4928 C.ar    
  26 C26          -10.9477    -0.2640    -5.6259 C.3     
  27 O27           -4.7601    -1.5176    -6.4950 O.2     
  28 O28           -1.6111    -1.6899    -3.3726 O.2     
  29 H29           -0.5459     1.8868    -0.8726 H       
  30 H30           -0.5289     1.8773     0.9072 H       
  31 H31            0.5123    -0.3556    -0.8948 H       
  32 H32            0.5293    -0.3651     0.8851 H       
  33 H33            1.9645     2.0987    -2.1741 H       
  34 H34            2.5511     4.1655     0.1390 H       
  35 H35           -1.9804    -0.1319     0.8657 H       
  36 H36           -0.5052    -2.4720    -0.3559 H       
  37 H37           -2.2885    -3.0626    -1.6983 H       
  38 H38           -4.0256    -0.8093    -0.6738 H       
  39 H39           -3.2777    -4.0268     0.2787 H       
  40 H40           -1.6492    -3.5089     1.4681 H       
  41 H41           -2.4725    -1.8250    -5.6390 H       
  42 H42           -5.6808    -0.7828    -2.2068 H       
  43 H43           -6.4561     0.8781    -5.7927 H       
  44 H44           -7.5287    -2.6170    -3.5569 H       
  45 H45           -8.8238     1.2299    -6.3601 H       
  46 H46           -9.8922    -2.2460    -4.1295 H       
  47 H47          -11.1820    -0.7881    -6.5525 H       
  48 H48          -11.5777    -0.6466    -4.8229 H       
  49 H49          -11.1317     0.8026    -5.7553 H       
@<TRIPOS>BOND
   1    1    2 1
   2    1    3 1
   3    1   29 1
   4    1   30 1
   5    2    8 1
   6    2   31 1
   7    2   32 1
   8    3    4 1
   9    3    5 1
  10    3    6 2
  11    4   33 1
  12    5   34 1
  13    7    8 1
  14    7   11 1
  15    8    9 1
  16    8   35 1
  17    9   10 1
  18    9   13 1
  19    9   36 1
  20   10   11 1
  21   10   12 1
  22   10   37 1
  23   11   19 1
  24   11   38 1
  25   12   39 1
  26   13   40 1
  27   14   15 am
  28   14   19 am
  29   14   28 2
  30   15   16 am
  31   15   41 1
  32   16   17 1
  33   16   27 2
  34   17   18 2
  35   17   20 1
  36   18   19 1
  37   18   42 1
  38   20   21 ar
  39   20   23 ar
  40   21   24 ar
  41   21   43 1
  42   22   24 ar
  43   22   25 ar
  44   22   26 1
  45   23   25 ar
  46   23   44 1
  47   24   45 1
  48   25   46 1
  49   26   47 1
  50   26   48 1
  51   26   49 1

#	End of record

