#	Name: ASD01810738
#	Creating user name:	WinNT
#	Creation time:	15. 06. 2019 19:25

#	Modifying user name:	WinNT
#	Modification time:	15. 06. 2019 19:25

#	Program:	/corina/corina34_cracker 3.40 0067  02.08.2006

@<TRIPOS>MOLECULE
ASD01810738
  55   58    0    0    0
SMALL
NO_CHARGES


@<TRIPOS>ATOM
   1 N1            -1.2284     9.0113    -2.2950 N.am    
   2 C2             0.0712     9.6928    -2.3848 C.3     
   3 C3            -0.1023    10.8851    -3.3490 C.3     
   4 C4            -1.6314    11.1449    -3.3089 C.3     
   5 C5            -2.1879     9.7056    -3.1730 C.3     
   6 C6            -1.4967     7.9279    -1.5396 C.2     
   7 O7            -0.6227     7.4327    -0.8548 O.2     
   8 N8            -2.7340     7.3934    -1.5433 N.am    
   9 C9            -2.9852     6.2123    -0.8466 C.ar    
  10 C10           -4.2854     5.7276    -0.7614 C.ar    
  11 C11           -4.5202     4.5441    -0.0604 C.ar    
  12 C12           -3.4283     3.8955     0.5283 C.ar    
  13 C13           -2.1691     4.4443     0.3961 C.ar    
  14 N14           -1.9830     5.5622    -0.2785 N.ar    
  15 C15           -5.8888     3.9890     0.0580 C.2     
  16 O16           -6.0809     2.8027    -0.1219 O.2     
  17 N17           -6.9206     4.7998     0.3652 N.am    
  18 C18           -6.7204     6.2495     0.4955 C.3     
  19 C19           -7.2560     6.7007     1.8579 C.3     
  20 C20           -8.7118     6.2517     2.0035 C.3     
  21 C21           -8.7853     4.7245     1.9373 C.3     
  22 C22           -8.2682     4.2515     0.5702 C.3     
  23 C23           -9.2526     6.7234     3.3287 C.ar    
  24 C24          -10.3462     7.5702     3.3641 C.ar    
  25 C25          -10.8464     8.0058     4.5736 C.ar    
  26 C26          -10.2466     7.5899     5.7640 C.ar    
  27 C27           -9.1436     6.7348     5.7209 C.ar    
  28 C28           -8.6567     6.3031     4.5046 C.ar    
  29 C29          -10.7602     8.0385     7.0232 C.1     
  30 N30          -11.1677     8.3943     8.0221 N.1     
  31 H31            0.3699    10.0526    -1.4002 H       
  32 H32            0.8232     9.0069    -2.7749 H       
  33 H33            0.4463    11.7554    -2.9888 H       
  34 H34            0.2170    10.6164    -4.3560 H       
  35 H35           -1.9021    11.7516    -2.4448 H       
  36 H36           -1.9731    11.6102    -4.2335 H       
  37 H37           -2.2287     9.2210    -4.1485 H       
  38 H38           -3.1770     9.7229    -2.7154 H       
  39 H39           -3.4497     7.8305    -2.0308 H       
  40 H40           -5.1007     6.2588    -1.2299 H       
  41 H41           -3.5696     2.9775     1.0793 H       
  42 H42           -1.3227     3.9486     0.8481 H       
  43 H43           -5.6571     6.4792     0.4265 H       
  44 H44           -7.2601     6.7657    -0.2985 H       
  45 H45           -6.6563     6.2536     2.6508 H       
  46 H46           -7.2016     7.7871     1.9286 H       
  47 H47           -9.3061     6.6792     1.1960 H       
  48 H48           -8.1713     4.2960     2.7294 H       
  49 H49           -9.8194     4.4042     2.0644 H       
  50 H50           -8.9316     4.6081    -0.2178 H       
  51 H51           -8.2265     3.1625     0.5506 H       
  52 H52          -10.8091     7.8912     2.4426 H       
  53 H53          -11.6996     8.6674     4.5998 H       
  54 H54           -8.6750     6.4093     6.6379 H       
  55 H55           -7.8061     5.6385     4.4699 H       
@<TRIPOS>BOND
   1    1    2 1
   2    1    5 1
   3    1    6 am
   4    2    3 1
   5    2   31 1
   6    2   32 1
   7    3    4 1
   8    3   33 1
   9    3   34 1
  10    4    5 1
  11    4   35 1
  12    4   36 1
  13    5   37 1
  14    5   38 1
  15    6    7 2
  16    6    8 am
  17    8    9 1
  18    8   39 1
  19    9   10 ar
  20    9   14 ar
  21   10   11 ar
  22   10   40 1
  23   11   12 ar
  24   11   15 1
  25   12   13 ar
  26   12   41 1
  27   13   14 ar
  28   13   42 1
  29   15   16 2
  30   15   17 am
  31   17   18 1
  32   17   22 1
  33   18   19 1
  34   18   43 1
  35   18   44 1
  36   19   20 1
  37   19   45 1
  38   19   46 1
  39   20   21 1
  40   20   23 1
  41   20   47 1
  42   21   22 1
  43   21   48 1
  44   21   49 1
  45   22   50 1
  46   22   51 1
  47   23   24 ar
  48   23   28 ar
  49   24   25 ar
  50   24   52 1
  51   25   26 ar
  52   25   53 1
  53   26   27 ar
  54   26   29 1
  55   27   28 ar
  56   27   54 1
  57   28   55 1
  58   29   30 3

#	End of record

