#	Name: ASD01816414
#	Creating user name:	WinNT
#	Creation time:	15. 06. 2019 19:35

#	Modifying user name:	WinNT
#	Modification time:	15. 06. 2019 19:35

#	Program:	/corina/corina34_cracker 3.40 0067  02.08.2006

@<TRIPOS>MOLECULE
ASD01816414
  51   56    0    0    0
SMALL
NO_CHARGES


@<TRIPOS>ATOM
   1 C1            -0.0167     1.3813     0.0096 C.ar    
   2 C2             0.0021    -0.0041     0.0020 C.ar    
   3 C3             1.1984    -0.6909    -0.0127 C.ar    
   4 C4             2.4015     0.0058    -0.0204 C.ar    
   5 C5             2.3791     1.4106    -0.0132 C.ar    
   6 C6             1.1663     2.0917     0.0022 C.ar    
   7 N7             3.6053    -0.6773    -0.0347 N.pl3   
   8 C8             4.7970    -0.0587    -0.0427 C.2     
   9 C9             4.8999     1.3102    -0.0373 C.2     
  10 C10            3.6669     2.1300    -0.0217 C.2     
  11 C11            5.9970     2.2728    -0.0432 C.2     
  12 N12            5.4246     3.4960    -0.0324 N.am    
  13 N13            4.0323     3.3800    -0.0196 N.2     
  14 O14            7.1915     2.0227    -0.0551 O.2     
  15 C15            3.5779    -2.1421    -0.0408 C.3     
  16 C16            3.5552    -2.6381    -1.4636 C.ar    
  17 C17            4.7428    -2.8876    -2.1264 C.ar    
  18 C18            4.7252    -3.3419    -3.4306 C.ar    
  19 C19            3.5135    -3.5484    -4.0760 C.ar    
  20 C20            2.3226    -3.2975    -3.4078 C.ar    
  21 C21            2.3466    -2.8483    -2.1019 C.ar    
  22 N22            3.4923    -4.0090    -5.3999 N.pl3   
  23 C23            2.3873    -4.2505    -6.1410 C.2     
  24 C24            2.7937    -4.6803    -7.3580 C.2     
  25 C25            4.1927    -4.7026    -7.3620 C.2     
  26 N26            4.6123    -4.2949    -6.1913 N.2     
  27 C27            6.1249     4.7049    -0.0335 C.2     
  28 C28            7.4703     4.8598    -0.0457 C.2     
  29 N29            7.7382     6.1739    -0.0420 N.2     
  30 C30            6.6194     6.8447    -0.0281 C.2     
  31 N31            5.5830     5.9647    -0.0283 N.pl3   
  32 C32            4.1568     6.2991    -0.0151 C.3     
  33 H33           -0.9602     1.9068     0.0170 H       
  34 H34           -0.9289    -0.5515     0.0080 H       
  35 H35            1.2003    -1.7709    -0.0178 H       
  36 H36            1.1506     3.1715     0.0081 H       
  37 H37            5.6983    -0.6537    -0.0534 H       
  38 H38            4.4657    -2.5242     0.4631 H       
  39 H39            2.6861    -2.4909     0.4799 H       
  40 H40            5.6852    -2.7268    -1.6239 H       
  41 H41            5.6532    -3.5359    -3.9480 H       
  42 H42            1.3785    -3.4569    -3.9073 H       
  43 H43            1.4206    -2.6529    -1.5815 H       
  44 H44            1.3642    -4.1237    -5.8191 H       
  45 H45            2.1515    -4.9572    -8.1810 H       
  46 H46            4.8186    -5.0007    -8.1901 H       
  47 H47            8.2002     4.0639    -0.0561 H       
  48 H48            6.5311     7.9211    -0.0221 H       
  49 H49            3.7957     6.3914    -1.0394 H       
  50 H50            3.6035     5.5109     0.4955 H       
  51 H51            4.0099     7.2438     0.5085 H       
@<TRIPOS>BOND
   1    1    2 ar
   2    1    6 ar
   3    1   33 1
   4    2    3 ar
   5    2   34 1
   6    3    4 ar
   7    3   35 1
   8    4    5 ar
   9    4    7 1
  10    5    6 ar
  11    5   10 1
  12    6   36 1
  13    7    8 1
  14    7   15 1
  15    8    9 2
  16    8   37 1
  17    9   10 1
  18    9   11 1
  19   10   13 2
  20   11   12 am
  21   11   14 2
  22   12   13 1
  23   12   27 1
  24   15   16 1
  25   15   38 1
  26   15   39 1
  27   16   17 ar
  28   16   21 ar
  29   17   18 ar
  30   17   40 1
  31   18   19 ar
  32   18   41 1
  33   19   20 ar
  34   19   22 1
  35   20   21 ar
  36   20   42 1
  37   21   43 1
  38   22   23 1
  39   22   26 1
  40   23   24 2
  41   23   44 1
  42   24   25 1
  43   24   45 1
  44   25   26 2
  45   25   46 1
  46   27   28 2
  47   27   31 1
  48   28   29 1
  49   28   47 1
  50   29   30 2
  51   30   31 1
  52   30   48 1
  53   31   32 1
  54   32   49 1
  55   32   50 1
  56   32   51 1

#	End of record

