#	Name: ASD01882084
#	Creating user name:	WinNT
#	Creation time:	15. 06. 2019 19:43

#	Modifying user name:	WinNT
#	Modification time:	15. 06. 2019 19:43

#	Program:	/corina/corina34_cracker 3.40 0067  02.08.2006

@<TRIPOS>MOLECULE
ASD01882084
  30   31    0    0    0
SMALL
NO_CHARGES


@<TRIPOS>ATOM
   1 C1            -0.0161     1.3337     0.0094 C.2     
   2 N2             0.0021    -0.0041     0.0020 N.am    
   3 C3             1.2613    -0.4841    -0.0126 C.2     
   4 C4             2.1640     0.7337    -0.0147 C.3     
   5 N5             1.2200     1.8645     0.0004 N.am    
   6 O6            -1.0354     1.9955     0.0180 O.2     
   7 O7             1.6013    -1.6477    -0.0215 O.2     
   8 C8            -1.1986    -0.8435     0.0097 C.3     
   9 C9            -1.6312    -1.1279    -1.4300 C.3     
  10 C10            1.5609     3.2893     0.0041 C.3     
  11 C11            1.6916     3.7708     1.4261 C.ar    
  12 C12            2.8544     3.5262     2.1353 C.ar    
  13 C13            2.9741     3.9683     3.4403 C.ar    
  14 C14            1.9312     4.6548     4.0359 C.ar    
  15 C15            0.7694     4.8988     3.3262 C.ar    
  16 C16            0.6523     4.4617     2.0199 C.ar    
  17 Cl17           4.1624     2.6641     1.3872 Cl      
  18 Br18           2.0938     5.2590     5.8204 Br      
  19 H19            2.7924     0.7467     0.8759 H       
  20 H20            2.7753     0.7564    -0.9169 H       
  21 H21           -0.9813    -1.7838     0.5163 H       
  22 H22           -2.0010    -0.3250     0.5345 H       
  23 H23           -1.8486    -0.1876    -1.9366 H       
  24 H24           -0.8288    -1.6464    -1.9548 H       
  25 H25           -2.5246    -1.7525    -1.4242 H       
  26 H26            2.5060     3.4381    -0.5182 H       
  27 H27            0.7749     3.8522    -0.4994 H       
  28 H28            3.8813     3.7773     3.9944 H       
  29 H29           -0.0447     5.4348     3.7912 H       
  30 H30           -0.2532     4.6566     1.4645 H       
@<TRIPOS>BOND
   1    1    2 am
   2    1    5 am
   3    1    6 2
   4    2    3 am
   5    2    8 1
   6    3    4 1
   7    3    7 2
   8    4    5 1
   9    4   19 1
  10    4   20 1
  11    5   10 1
  12    8    9 1
  13    8   21 1
  14    8   22 1
  15    9   23 1
  16    9   24 1
  17    9   25 1
  18   10   11 1
  19   10   26 1
  20   10   27 1
  21   11   12 ar
  22   11   16 ar
  23   12   13 ar
  24   12   17 1
  25   13   14 ar
  26   13   28 1
  27   14   15 ar
  28   14   18 1
  29   15   16 ar
  30   15   29 1
  31   16   30 1

#	End of record

