#	Name: ASD01911387
#	Creating user name:	WinNT
#	Creation time:	15. 06. 2019 19:57

#	Modifying user name:	WinNT
#	Modification time:	15. 06. 2019 19:57

#	Program:	/corina/corina34_cracker 3.40 0067  02.08.2006

@<TRIPOS>MOLECULE
ASD01911387
  41   43    0    0    0
SMALL
NO_CHARGES


@<TRIPOS>ATOM
   1 N1            -0.0068     1.4098    -0.0031 N.2     
   2 N2            -0.0073     0.0099    -0.0453 N.pl3   
   3 C3             1.2422     1.8243     0.0385 C.2     
   4 C4             2.0818     0.6978     0.0241 C.2     
   5 C5             1.2896    -0.4115    -0.0278 C.2     
   6 C6             1.7531    -1.8166    -0.0587 C.ar    
   7 C7             1.6872     3.2394     0.0912 C.ar    
   8 C8             0.7476     4.2677     0.1004 C.ar    
   9 C9            -1.1921    -0.8501    -0.0989 C.3     
  10 C10           -1.6290    -1.0147    -1.5318 C.2     
  11 O11           -2.7015    -1.7669    -1.8242 O.3     
  12 O12           -1.0138    -0.4695    -2.4173 O.2     
  13 C13           -3.0645    -1.8809    -3.2255 C.3     
  14 C14            0.9277    -2.8152    -0.5759 C.ar    
  15 C15            1.1669     5.5820     0.1493 C.ar    
  16 C16            2.5171     5.8787     0.1893 C.ar    
  17 C17            3.4545     4.8613     0.1804 C.ar    
  18 C18            3.0462     3.5438     0.1373 C.ar    
  19 C19            1.3658    -4.1233    -0.6023 C.ar    
  20 C20            2.6206    -4.4455    -0.1169 C.ar    
  21 C21            3.4436    -3.4598     0.3978 C.ar    
  22 C22            3.0195    -2.1471     0.4240 C.ar    
  23 C23            0.1516     6.6956     0.1588 C.3     
  24 H24            3.1615     0.7082     0.0496 H       
  25 H25           -0.3070     4.0371     0.0689 H       
  26 H26           -0.9517    -1.8264     0.3221 H       
  27 H27           -1.9979    -0.3947     0.4766 H       
  28 H28           -3.9461    -2.5146    -3.3221 H       
  29 H29           -3.2831    -0.8909    -3.6258 H       
  30 H30           -2.2369    -2.3226    -3.7804 H       
  31 H31           -0.0523    -2.5650    -0.9545 H       
  32 H32            2.8409     6.9083     0.2272 H       
  33 H33            4.5077     5.0985     0.2113 H       
  34 H34            3.7788     2.7503     0.1304 H       
  35 H35            0.7278    -4.8973    -1.0025 H       
  36 H36            2.9589    -5.4709    -0.1394 H       
  37 H37            4.4218    -3.7177     0.7759 H       
  38 H38            3.6629    -1.3784     0.8260 H       
  39 H39           -0.1172     6.9334     1.1880 H       
  40 H40            0.5761     7.5784    -0.3191 H       
  41 H41           -0.7385     6.3803    -0.3856 H       
@<TRIPOS>BOND
   1    1    2 1
   2    1    3 2
   3    2    9 1
   4    2    5 1
   5    3    4 1
   6    3    7 1
   7    4    5 2
   8    4   24 1
   9    5    6 1
  10    6   14 ar
  11    6   22 ar
  12    7    8 ar
  13    7   18 ar
  14    8   15 ar
  15    8   25 1
  16    9   10 1
  17    9   26 1
  18    9   27 1
  19   10   11 1
  20   10   12 2
  21   11   13 1
  22   13   28 1
  23   13   29 1
  24   13   30 1
  25   14   19 ar
  26   14   31 1
  27   15   16 ar
  28   15   23 1
  29   16   17 ar
  30   16   32 1
  31   17   18 ar
  32   17   33 1
  33   18   34 1
  34   19   20 ar
  35   19   35 1
  36   20   21 ar
  37   20   36 1
  38   21   22 ar
  39   21   37 1
  40   22   38 1
  41   23   39 1
  42   23   40 1
  43   23   41 1

#	End of record

