#	Name: ASD08830010
#	Creating user name:	WinNT
#	Creation time:	15. 06. 2019 21:19

#	Modifying user name:	WinNT
#	Modification time:	15. 06. 2019 21:19

#	Program:	/corina/corina34_cracker 3.40 0067  02.08.2006

@<TRIPOS>MOLECULE
ASD08830010
  46   48    0    0    0
SMALL
NO_CHARGES


@<TRIPOS>ATOM
   1 C1            -0.0096     1.2198    -0.9459 C.ar    
   2 C2             0.0222    -0.1587    -0.7339 C.ar    
   3 C3             1.1758     1.9477    -0.9479 C.ar    
   4 C4             2.3801     1.3159    -0.7362 C.ar    
   5 C5             2.4181    -0.0662    -0.5170 C.ar    
   6 C6             1.2271    -0.8014    -0.5173 C.ar    
   7 C7             3.7025    -0.7421    -0.2881 C.2     
   8 C8             4.9828     0.0527    -0.2890 C.3     
   9 C9             6.1646    -0.8838    -0.0293 C.3     
  10 N10            7.4211    -0.1333    -0.1555 N.3     
  11 C11            8.5823    -0.9820     0.1888 C.3     
  12 O12            3.7322    -1.9397    -0.0984 O.2     
  13 N13           -1.1670    -0.9053    -0.7431 N.pl3   
  14 C14           -2.4398    -0.1688    -0.6368 C.3     
  15 C15           -2.2645     1.1149    -1.4267 C.2     
  16 O16           -1.1861     1.8727    -1.1417 O.3     
  17 C17            9.6243    -0.0702     0.8627 C.3     
  18 C18            8.9690     1.3294     0.9050 C.3     
  19 C19            7.4574     1.0076     0.7949 C.3     
  20 N20            9.2656     2.0042     2.1756 N.3     
  21 C21           10.7115     2.2050     2.3400 C.3     
  22 C22            8.5423     3.2788     2.2762 C.3     
  23 O23           -3.0581     1.4443    -2.2761 O.2     
  24 H24            1.1511     3.0141    -1.1168 H       
  25 H25            3.2968     1.8869    -0.7395 H       
  26 H26            1.2491    -1.8679    -0.3484 H       
  27 H27            5.1091     0.5371    -1.2572 H       
  28 H28            4.9408     0.8102     0.4936 H       
  29 H29            6.0872    -1.2962     0.9767 H       
  30 H30            6.1516    -1.6955    -0.7567 H       
  31 H31            8.2759    -1.7686     0.8784 H       
  32 H32            9.0028    -1.4208    -0.7160 H       
  33 H33           -1.1516    -1.8724    -0.8173 H       
  34 H34           -3.2504    -0.7608    -1.0618 H       
  35 H35           -2.6519     0.0614     0.4073 H       
  36 H36            9.8356    -0.4196     1.8734 H       
  37 H37           10.5401    -0.0414     0.2724 H       
  38 H38            9.2970     1.9345     0.0598 H       
  39 H39            6.9107     1.8607     0.3931 H       
  40 H40            7.0551     0.7136     1.7644 H       
  41 H41           11.0884     2.8188     1.5220 H       
  42 H42           10.9032     2.7064     3.2887 H       
  43 H43           11.2158     1.2387     2.3314 H       
  44 H44            7.4697     3.0932     2.2212 H       
  45 H45            8.7800     3.7574     3.2262 H       
  46 H46            8.8407     3.9316     1.4558 H       
@<TRIPOS>BOND
   1    1    2 ar
   2    1    3 ar
   3    1   16 1
   4    2   13 1
   5    2    6 ar
   6    3    4 ar
   7    3   24 1
   8    4    5 ar
   9    4   25 1
  10    5    6 ar
  11    5    7 1
  12    6   26 1
  13    7    8 1
  14    7   12 2
  15    8    9 1
  16    8   27 1
  17    8   28 1
  18    9   10 1
  19    9   29 1
  20    9   30 1
  21   10   11 1
  22   10   19 1
  23   11   17 1
  24   11   31 1
  25   11   32 1
  26   13   14 1
  27   13   33 1
  28   14   15 1
  29   14   34 1
  30   14   35 1
  31   15   16 1
  32   15   23 2
  33   17   18 1
  34   17   36 1
  35   17   37 1
  36   18   19 1
  37   18   20 1
  38   18   38 1
  39   19   39 1
  40   19   40 1
  41   20   21 1
  42   20   22 1
  43   21   41 1
  44   21   42 1
  45   21   43 1
  46   22   44 1
  47   22   45 1
  48   22   46 1

#	End of record

