#	Name: ASD07301390
#	Creating user name:	WinNT
#	Creation time:	15. 06. 2019 21:11

#	Modifying user name:	WinNT
#	Modification time:	15. 06. 2019 21:11

#	Program:	/corina/corina34_cracker 3.40 0067  02.08.2006

@<TRIPOS>MOLECULE
ASD07301390
  39   40    0    0    0
SMALL
NO_CHARGES


@<TRIPOS>ATOM
   1 C1            -0.0023     1.4390    -0.2724 C.2     
   2 C2             0.0017    -0.0035     0.0066 C.2     
   3 C3             1.2607    -0.6097     0.2768 C.2     
   4 C4             2.3627     0.1848     0.2574 C.2     
   5 N5             2.2574     1.5100    -0.0114 N.pl3   
   6 N6             1.1425     2.0916    -0.2593 N.2     
   7 C7            -1.2654     2.1436    -0.5683 C.2     
   8 O8            -2.3148     1.5299    -0.5826 O.2     
   9 N9            -1.2551     3.4671    -0.8226 N.am    
  10 C10            3.4245     2.2811    -0.0179 C.ar    
  11 C11            4.6666     1.6649     0.0722 C.ar    
  12 C12            5.8166     2.4290     0.0650 C.ar    
  13 C13            5.7332     3.8063    -0.0313 C.ar    
  14 C14            4.4987     4.4227    -0.1211 C.ar    
  15 C15            3.3446     3.6640    -0.1203 C.ar    
  16 C16            7.1643     1.7616     0.1627 C.3     
  17 F17            7.6324     1.4658    -1.1221 F       
  18 F18            8.0651     2.6210     0.8008 F       
  19 F19            7.0464     0.5785     0.8999 F       
  20 O20           -1.0317    -0.6547     0.0072 O.2     
  21 C21           -2.5086     4.1662    -1.1162 C.3     
  22 O22            1.3573    -1.9389     0.5457 O.3     
  23 C23            2.6644    -2.4552     0.8043 C.3     
  24 O24           -0.0329     4.1818    -0.8059 O.3     
  25 C25            0.6298     4.2295    -2.0711 C.3     
  26 H26            3.3335    -0.2438     0.4585 H       
  27 H27            4.7324     0.5896     0.1481 H       
  28 H28            6.6343     4.4016    -0.0360 H       
  29 H29            4.4371     5.4983    -0.1962 H       
  30 H30            2.3809     4.1457    -0.1950 H       
  31 H31           -2.9462     4.5330    -0.1877 H       
  32 H32           -2.3087     5.0069    -1.7806 H       
  33 H33           -3.2035     3.4790    -1.5988 H       
  34 H34            3.3006    -2.2851    -0.0643 H       
  35 H35            3.0900    -1.9493     1.6710 H       
  36 H36            2.5998    -3.5249     1.0034 H       
  37 H37            0.8546     3.2156    -2.4020 H       
  38 H38           -0.0169     4.7152    -2.8019 H       
  39 H39            1.5571     4.7942    -1.9745 H       
@<TRIPOS>BOND
   1    1    2 1
   2    1    6 2
   3    1    7 1
   4    2    3 1
   5    2   20 2
   6    3    4 2
   7    3   22 1
   8    4    5 1
   9    4   26 1
  10    5    6 1
  11    5   10 1
  12    7    8 2
  13    7    9 am
  14    9   21 1
  15    9   24 1
  16   10   11 ar
  17   10   15 ar
  18   11   12 ar
  19   11   27 1
  20   12   13 ar
  21   12   16 1
  22   13   14 ar
  23   13   28 1
  24   14   15 ar
  25   14   29 1
  26   15   30 1
  27   16   17 1
  28   16   18 1
  29   16   19 1
  30   21   31 1
  31   21   32 1
  32   21   33 1
  33   22   23 1
  34   23   34 1
  35   23   35 1
  36   23   36 1
  37   24   25 1
  38   25   37 1
  39   25   38 1
  40   25   39 1

#	End of record

