#	Name: ASD03090706
#	Creating user name:	WinNT
#	Creation time:	15. 06. 2019 20:29

#	Modifying user name:	WinNT
#	Modification time:	15. 06. 2019 20:29

#	Program:	/corina/corina34_cracker 3.40 0067  02.08.2006

@<TRIPOS>MOLECULE
ASD03090706
  33   34    0    0    0
SMALL
NO_CHARGES


@<TRIPOS>ATOM
   1 N1            -0.0092     1.3369    -0.4201 N.am    
   2 C2            -0.1086     0.1853     0.2731 C.2     
   3 O3             0.8209    -0.1933     0.9593 O.2     
   4 N4            -1.2384    -0.5465     0.2056 N.am    
   5 O5            -2.1548    -3.5017     1.6689 O.3     
   6 N6            -2.3664    -2.5487     0.9555 N.2     
   7 C7            -1.3413    -1.7381     0.9230 C.2     
   8 C8            -0.3531    -2.3148     1.7646 C.2     
   9 C9            -0.9325    -3.4497     2.2178 C.2     
  10 C10           -0.3236    -4.4585     3.1573 C.3     
  11 C11            1.1139     2.1588    -0.2560 C.ar    
  12 C12            0.9604     3.5364    -0.1747 C.ar    
  13 C13            2.0672     4.3463    -0.0130 C.ar    
  14 C14            3.3326     3.7842     0.0683 C.ar    
  15 C15            3.4873     2.4072    -0.0124 C.ar    
  16 C16            2.3797     1.5956    -0.1690 C.ar    
  17 N17           -0.3897     4.1370    -0.2618 N.pl3   
  18 O18           -0.5171     5.3481    -0.2855 O.2     
  19 O19           -1.3732     3.4201    -0.3098 O.2     
  20 O20            4.4221     4.5826     0.2267 O.3     
  21 C21            4.1894     5.9905     0.3017 C.3     
  22 Cl22           5.0713     1.7043     0.0888 Cl      
  23 H23           -0.7132     1.5948    -1.0356 H       
  24 H24           -1.9800    -0.2444    -0.3418 H       
  25 H25            0.6325    -1.9351     1.9902 H       
  26 H26           -1.0355    -5.2643     3.3362 H       
  27 H27            0.5839    -4.8673     2.7130 H       
  28 H28           -0.0789    -3.9735     4.1023 H       
  29 H29            1.9475     5.4178     0.0499 H       
  30 H30            2.4993     0.5238    -0.2281 H       
  31 H31            3.7094     6.3289    -0.6166 H       
  32 H32            3.5417     6.2070     1.1512 H       
  33 H33            5.1395     6.5096     0.4276 H       
@<TRIPOS>BOND
   1    1    2 am
   2    1   11 1
   3    1   23 1
   4    2    3 2
   5    2    4 am
   6    4    7 1
   7    4   24 1
   8    5    6 1
   9    5    9 1
  10    6    7 2
  11    7    8 1
  12    8    9 2
  13    8   25 1
  14    9   10 1
  15   10   26 1
  16   10   27 1
  17   10   28 1
  18   11   12 ar
  19   11   16 ar
  20   12   13 ar
  21   12   17 1
  22   13   14 ar
  23   13   29 1
  24   14   15 ar
  25   14   20 1
  26   15   16 ar
  27   15   22 1
  28   16   30 1
  29   17   18 2
  30   17   19 2
  31   20   21 1
  32   21   31 1
  33   21   32 1
  34   21   33 1

#	End of record

