#	Name: ASD02500208
#	Creating user name:	WinNT
#	Creation time:	15. 06. 2019 20:22

#	Modifying user name:	WinNT
#	Modification time:	15. 06. 2019 20:22

#	Program:	/corina/corina34_cracker 3.40 0067  02.08.2006

@<TRIPOS>MOLECULE
ASD02500208
  53   56    0    0    0
SMALL
NO_CHARGES


@<TRIPOS>ATOM
   1 C1            -1.1717     0.1658     2.6748 C.ar    
   2 C2            -0.7355     0.2755     3.9820 C.ar    
   3 C3             0.3417    -0.4740     4.4164 C.ar    
   4 C4             0.9824    -1.3336     3.5438 C.ar    
   5 C5             0.5457    -1.4440     2.2369 C.ar    
   6 C6            -0.5306    -0.6934     1.8021 C.ar    
   7 S7            -2.5493     1.1157     2.1231 S.o2    
   8 O8            -3.0238     0.4854     0.9412 O.2     
   9 O9            -3.3646     1.3408     3.2649 O.2     
  10 N10           -1.9702     2.5973     1.6626 N.am    
  11 C11           -1.3511     3.4222     2.5951 C.ar    
  12 C12           -0.1458     4.0440     2.2806 C.ar    
  13 C13            0.4693     4.8610     3.2013 C.ar    
  14 C14           -0.1173     5.0663     4.4535 C.ar    
  15 C15           -1.3276     4.4406     4.7662 C.ar    
  16 C16           -1.9407     3.6293     3.8391 C.ar    
  17 C17            0.5398     5.9412     5.4430 C.2     
  18 O18           -0.1271     6.6933     6.1273 O.2     
  19 N19            1.8792     5.9069     5.5886 N.am    
  20 C20            2.5466     6.7083     6.6256 C.3     
  21 C21            3.4737     5.7900     7.4290 C.3     
  22 N22            4.3781     5.0868     6.5095 N.3     
  23 C23            3.6329     4.2133     5.5932 C.3     
  24 C24            2.7117     5.0623     4.7186 C.3     
  25 C25            5.3454     4.3654     7.2129 C.ar    
  26 C26            6.3007     3.6278     6.5251 C.ar    
  27 C27            7.2559     2.9160     7.2237 C.ar    
  28 C28            7.2623     2.9370     8.6064 C.ar    
  29 C29            6.3128     3.6702     9.2942 C.ar    
  30 C30            5.3579     4.3885     8.6018 C.ar    
  31 H31           -1.2361     0.9471     4.6637 H       
  32 H32            0.6829    -0.3878     5.4374 H       
  33 H33            1.8245    -1.9187     3.8830 H       
  34 H34            1.0465    -2.1154     1.5551 H       
  35 H35           -0.8716    -0.7794     0.7809 H       
  36 H36           -2.0629     2.8896     0.7423 H       
  37 H37            0.3071     3.8846     1.3132 H       
  38 H38            1.4045     5.3427     2.9569 H       
  39 H39           -1.7831     4.5971     5.7329 H       
  40 H40           -2.8782     3.1494     4.0784 H       
  41 H41            3.1315     7.4997     6.1569 H       
  42 H42            1.7995     7.1449     7.2884 H       
  43 H43            4.0586     6.3862     8.1293 H       
  44 H44            2.8773     5.0626     7.9797 H       
  45 H45            4.3331     3.6661     4.9621 H       
  46 H46            3.0342     3.5079     6.1694 H       
  47 H47            2.0736     4.4112     4.1211 H       
  48 H48            3.3127     5.6925     4.0630 H       
  49 H49            6.2961     3.6106     5.4452 H       
  50 H50            7.9987     2.3420     6.6895 H       
  51 H51            8.0102     2.3792     9.1503 H       
  52 H52            6.3205     3.6845    10.3741 H       
  53 H53            4.6193     4.9645     9.1395 H       
@<TRIPOS>BOND
   1    1    2 ar
   2    1    6 ar
   3    1    7 1
   4    2    3 ar
   5    2   31 1
   6    3    4 ar
   7    3   32 1
   8    4    5 ar
   9    4   33 1
  10    5    6 ar
  11    5   34 1
  12    6   35 1
  13    7    8 2
  14    7    9 2
  15    7   10 am
  16   10   11 1
  17   10   36 1
  18   11   12 ar
  19   11   16 ar
  20   12   13 ar
  21   12   37 1
  22   13   14 ar
  23   13   38 1
  24   14   15 ar
  25   14   17 1
  26   15   16 ar
  27   15   39 1
  28   16   40 1
  29   17   18 2
  30   17   19 am
  31   19   20 1
  32   19   24 1
  33   20   21 1
  34   20   41 1
  35   20   42 1
  36   21   22 1
  37   21   43 1
  38   21   44 1
  39   22   23 1
  40   22   25 1
  41   23   24 1
  42   23   45 1
  43   23   46 1
  44   24   47 1
  45   24   48 1
  46   25   26 ar
  47   25   30 ar
  48   26   27 ar
  49   26   49 1
  50   27   28 ar
  51   27   50 1
  52   28   29 ar
  53   28   51 1
  54   29   30 ar
  55   29   52 1
  56   30   53 1

#	End of record

