#	Name: ASD01001068
#	Creating user name:	WinNT
#	Creation time:	15. 06. 2019 18:55

#	Modifying user name:	WinNT
#	Modification time:	15. 06. 2019 18:55

#	Program:	/corina/corina34_cracker 3.40 0067  02.08.2006

@<TRIPOS>MOLECULE
ASD01001068
  48   50    0    0    0
SMALL
NO_CHARGES


@<TRIPOS>ATOM
   1 C1             0.7112     1.2147     2.2549 C.ar    
   2 C2             0.9563     1.6133     0.9541 C.ar    
   3 C3             1.4521     0.1910     2.8153 C.ar    
   4 C4             1.9422     0.9882     0.2138 C.ar    
   5 C5             2.4380    -0.4341     2.0749 C.ar    
   6 C6             2.6834    -0.0352     0.7743 C.ar    
   7 C7             3.7585    -0.7163    -0.0326 C.3     
   8 C8             3.5737    -2.2100     0.0439 C.ar    
   9 C9             3.6659    -0.2716    -1.4695 C.ar    
  10 S10            5.3866    -0.2736     0.6337 S.3     
  11 C11            4.6681    -3.0475    -0.0693 C.ar    
  12 C12            2.3109    -2.7404     0.2327 C.ar    
  13 C13            4.7250     0.3956    -2.0562 C.ar    
  14 C14            2.5242    -0.5358    -2.2026 C.ar    
  15 C15            5.3510     1.5400     0.6267 C.3     
  16 C16            4.5013    -4.4171     0.0005 C.ar    
  17 C17            2.1390    -4.1092     0.3041 C.ar    
  18 C18            4.6401     0.8036    -3.3742 C.ar    
  19 C19            2.4392    -0.1279    -3.5206 C.ar    
  20 C20            6.7174     2.0787     1.0552 C.3     
  21 C21            3.2345    -4.9519     0.1847 C.ar    
  22 C22            3.4962     0.5440    -4.1057 C.ar    
  23 N23            6.6885     3.5474     1.0495 N.3     
  24 O24            3.0680    -6.2989     0.2545 O.3     
  25 C25            4.2405    -7.1052     0.1234 C.3     
  26 H26           -0.0560     1.7061     2.8348 H       
  27 H27            0.3773     2.4129     0.5161 H       
  28 H28            1.2608    -0.1202     3.8316 H       
  29 H29            2.1332     1.2992    -0.8027 H       
  30 H30            3.0172    -1.2335     2.5130 H       
  31 H31            5.6540    -2.6306    -0.2126 H       
  32 H32            1.4582    -2.0840     0.3249 H       
  33 H33            5.6187     0.5984    -1.4846 H       
  34 H34            1.6986    -1.0613    -1.7457 H       
  35 H35            5.1191     1.8950    -0.3775 H       
  36 H36            4.5879     1.8911     1.3213 H       
  37 H37            5.3563    -5.0708    -0.0887 H       
  38 H38            1.1524    -4.5231     0.4516 H       
  39 H39            5.4672     1.3254    -3.8323 H       
  40 H40            1.5473    -0.3346    -4.0935 H       
  41 H41            6.9492     1.7237     2.0593 H       
  42 H42            7.4805     1.7276     0.3605 H       
  43 H43            3.4299     0.8627    -5.1355 H       
  44 H44            5.9462     3.8967     1.6368 H       
  45 H45            7.5803     3.9277     1.3292 H       
  46 H46            4.7043    -6.9172    -0.8450 H       
  47 H47            4.9439    -6.8555     0.9177 H       
  48 H48            3.9676    -8.1579     0.1973 H       
@<TRIPOS>BOND
   1    1    2 ar
   2    1    3 ar
   3    1   26 1
   4    2    4 ar
   5    2   27 1
   6    3    5 ar
   7    3   28 1
   8    4    6 ar
   9    4   29 1
  10    5    6 ar
  11    5   30 1
  12    6    7 1
  13    7    8 1
  14    7    9 1
  15    7   10 1
  16    8   11 ar
  17    8   12 ar
  18    9   13 ar
  19    9   14 ar
  20   10   15 1
  21   11   16 ar
  22   11   31 1
  23   12   17 ar
  24   12   32 1
  25   13   18 ar
  26   13   33 1
  27   14   19 ar
  28   14   34 1
  29   15   20 1
  30   15   35 1
  31   15   36 1
  32   16   21 ar
  33   16   37 1
  34   17   21 ar
  35   17   38 1
  36   18   22 ar
  37   18   39 1
  38   19   22 ar
  39   19   40 1
  40   20   23 1
  41   20   41 1
  42   20   42 1
  43   21   24 1
  44   22   43 1
  45   23   44 1
  46   23   45 1
  47   24   25 1
  48   25   46 1
  49   25   47 1
  50   25   48 1

#	End of record

