#	Name: ASD02200002
#	Creating user name:	WinNT
#	Creation time:	15. 06. 2019 20:20

#	Modifying user name:	WinNT
#	Modification time:	15. 06. 2019 20:20

#	Program:	/corina/corina34_cracker 3.40 0067  02.08.2006

@<TRIPOS>MOLECULE
ASD02200002
  45   47    0    0    0
SMALL
NO_CHARGES


@<TRIPOS>ATOM
   1 C1            -0.0187     1.5258     0.0104 C.3     
   2 C2             0.0021    -0.0041     0.0020 C.3     
   3 C3             0.7421    -0.5109     1.2415 C.3     
   4 C4             0.7625    -2.0177     1.2333 C.2     
   5 N5             1.6869    -2.7626     0.6902 N.2     
   6 N6             1.3695    -4.1139     0.8807 N.pl3   
   7 C7             0.1914    -4.1752     1.5753 C.2     
   8 C8            -0.2095    -2.8546     1.8155 C.2     
   9 N9            -1.3529    -2.6216     2.4909 N.2     
  10 C10           -2.0966    -3.6137     2.9271 C.2     
  11 N11           -1.7508    -4.9232     2.7195 N.am    
  12 C12           -0.6158    -5.2312     2.0538 C.2     
  13 O13           -0.2997    -6.3931     1.8641 O.2     
  14 C14           -3.3348    -3.3096     3.6593 C.2     
  15 C15           -4.2235    -4.3233     4.1817 C.2     
  16 C16           -5.2791    -3.8189     4.8065 C.2     
  17 S17           -5.2340    -2.0648     4.7842 S.3     
  18 C18           -3.7636    -2.0392     3.9226 C.2     
  19 O19           -3.1124    -0.9124     3.5436 O.3     
  20 C20           -3.7135     0.3346     3.8982 C.3     
  21 C21           -2.8411     1.4841     3.3898 C.3     
  22 S22           -6.5527    -4.7787     5.5557 S.o2    
  23 O23           -7.7044    -3.9478     5.6059 O.2     
  24 O24           -6.5347    -6.0439     4.9092 O.2     
  25 N25           -6.1028    -5.0496     7.1262 N.am    
  26 C26            2.1583    -5.2584     0.4180 C.3     
  27 H27            1.0039     1.9031     0.0027 H       
  28 H28           -0.5459     1.8868    -0.8726 H       
  29 H29           -0.5289     1.8773     0.9072 H       
  30 H30           -1.0205    -0.3814     0.0098 H       
  31 H31            0.5123    -0.3556    -0.8948 H       
  32 H32            1.7647    -0.1336     1.2338 H       
  33 H33            0.2319    -0.1594     2.1383 H       
  34 H34           -2.3215    -5.6323     3.0548 H       
  35 H35           -4.0461    -5.3831     4.0739 H       
  36 H36           -4.7032     0.4024     3.4466 H       
  37 H37           -3.8038     0.3991     4.9826 H       
  38 H38           -3.2996     2.4353     3.6603 H       
  39 H39           -1.8514     1.4163     3.8415 H       
  40 H40           -2.7508     1.4196     2.3055 H       
  41 H41           -5.2646    -4.6925     7.4591 H       
  42 H42           -6.6774    -5.5654     7.7133 H       
  43 H43            2.8758    -5.5404     1.1885 H       
  44 H44            1.4945    -6.0987     0.2146 H       
  45 H45            2.6914    -4.9876    -0.4933 H       
@<TRIPOS>BOND
   1    1    2 1
   2    1   27 1
   3    1   28 1
   4    1   29 1
   5    2    3 1
   6    2   30 1
   7    2   31 1
   8    3    4 1
   9    3   32 1
  10    3   33 1
  11    4    5 2
  12    4    8 1
  13    5    6 1
  14    6    7 1
  15    6   26 1
  16    7    8 2
  17    7   12 1
  18    8    9 1
  19    9   10 2
  20   10   11 1
  21   10   14 1
  22   11   12 am
  23   11   34 1
  24   12   13 2
  25   14   15 1
  26   14   18 2
  27   15   16 2
  28   15   35 1
  29   16   17 1
  30   16   22 1
  31   17   18 1
  32   18   19 1
  33   19   20 1
  34   20   21 1
  35   20   36 1
  36   20   37 1
  37   21   38 1
  38   21   39 1
  39   21   40 1
  40   22   23 2
  41   22   24 2
  42   22   25 am
  43   25   41 1
  44   25   42 1
  45   26   43 1
  46   26   44 1
  47   26   45 1

#	End of record

