#	Name: ASD03930290
#	Creating user name:	WinNT
#	Creation time:	15. 06. 2019 20:47

#	Modifying user name:	WinNT
#	Modification time:	15. 06. 2019 20:47

#	Program:	/corina/corina34_cracker 3.40 0067  02.08.2006

@<TRIPOS>MOLECULE
ASD03930290
  38   40    0    0    0
SMALL
NO_CHARGES


@<TRIPOS>ATOM
   1 C1             1.5958    -7.4390    -2.9534 C.3     
   2 O2             0.4472    -6.5906    -2.8989 O.3     
   3 C3             0.0670    -6.1450    -1.6726 C.ar    
   4 C4             0.7886    -6.5124    -0.5459 C.ar    
   5 C5             0.4028    -6.0593     0.7015 C.ar    
   6 C6            -0.7017    -5.2396     0.8300 C.ar    
   7 C7            -1.4273    -4.8694    -0.2941 C.ar    
   8 O8            -2.5137    -4.0632    -0.1672 O.3     
   9 C9            -3.7449    -4.6381    -0.2195 C.ar    
  10 C10           -4.8860    -3.8574    -0.1075 C.ar    
  11 C11           -6.1333    -4.4403    -0.1514 C.ar    
  12 C12           -6.2680    -5.8227    -0.3096 C.ar    
  13 N13           -7.5544    -6.3498    -0.2873 N.3     
  14 C14           -8.5476    -5.3297    -0.6491 C.3     
  15 C15           -7.7776    -7.5827    -1.0308 C.3     
  16 N16           -6.8904    -8.6401    -0.5019 N.am    
  17 S17           -5.2573    -8.3368    -0.6849 S.o2    
  18 O18           -4.5959    -8.9614     0.4067 O.2     
  19 O19           -4.9397    -8.5906    -2.0465 O.2     
  20 C20           -5.1197    -6.5897    -0.4388 C.ar    
  21 C21           -3.8695    -6.0093    -0.3910 C.ar    
  22 C22           -1.0389    -5.3181    -1.5471 C.ar    
  23 H23            1.7896    -7.7221    -3.9880 H       
  24 H24            2.4595    -6.9073    -2.5542 H       
  25 H25            1.4143    -8.3349    -2.3595 H       
  26 H26            1.6523    -7.1534    -0.6436 H       
  27 H27            0.9656    -6.3467     1.5773 H       
  28 H28           -1.0012    -4.8867     1.8058 H       
  29 H29           -4.7961    -2.7882     0.0150 H       
  30 H30           -7.0154    -3.8235    -0.0624 H       
  31 H31           -8.2679    -4.8704    -1.5972 H       
  32 H32           -9.5282    -5.7957    -0.7464 H       
  33 H33           -8.5838    -4.5661     0.1279 H       
  34 H34           -8.8172    -7.8910    -0.9202 H       
  35 H35           -7.5572    -7.4165    -2.0853 H       
  36 H36           -7.2292    -9.4460    -0.0817 H       
  37 H37           -2.9860    -6.6237    -0.4832 H       
  38 H38           -1.5991    -5.0274    -2.4235 H       
@<TRIPOS>BOND
   1    1    2 1
   2    1   23 1
   3    1   24 1
   4    1   25 1
   5    2    3 1
   6    3   22 ar
   7    3    4 ar
   8    4    5 ar
   9    4   26 1
  10    5    6 ar
  11    5   27 1
  12    6    7 ar
  13    6   28 1
  14    7    8 1
  15    7   22 ar
  16    8    9 1
  17    9   21 ar
  18    9   10 ar
  19   10   11 ar
  20   10   29 1
  21   11   12 ar
  22   11   30 1
  23   12   20 ar
  24   12   13 1
  25   13   14 1
  26   13   15 1
  27   14   31 1
  28   14   32 1
  29   14   33 1
  30   15   16 1
  31   15   34 1
  32   15   35 1
  33   16   17 am
  34   16   36 1
  35   17   18 2
  36   17   19 2
  37   17   20 1
  38   20   21 ar
  39   21   37 1
  40   22   38 1

#	End of record

