#	Name: ASD03331231
#	Creating user name:	WinNT
#	Creation time:	15. 06. 2019 20:38

#	Modifying user name:	WinNT
#	Modification time:	15. 06. 2019 20:38

#	Program:	/corina/corina34_cracker 3.40 0067  02.08.2006

@<TRIPOS>MOLECULE
ASD03331231
  54   57    0    0    0
SMALL
NO_CHARGES


@<TRIPOS>ATOM
   1 N1            -0.0455     1.4969     0.5749 N.am    
   2 C2             0.0033     0.1543     1.1734 C.3     
   3 C3             0.5952    -0.8157     0.1453 C.3     
   4 N4             1.8870    -0.2978    -0.3247 N.3     
   5 C5             1.7252     0.9856    -1.0209 C.3     
   6 C6             1.1796     2.0294    -0.0405 C.3     
   7 C7            -1.1842     2.2179     0.5853 C.2     
   8 O8            -2.2123     1.7245     1.0068 O.2     
   9 N9            -1.1831     3.4859     0.1284 N.am    
  10 C10           -2.3804     4.1935     0.0333 C.ar    
  11 C11           -2.3933     5.5681     0.2495 C.ar    
  12 C12           -3.5735     6.2701     0.1560 C.ar    
  13 C13           -4.7604     5.6004    -0.1565 C.ar    
  14 C14           -4.7436     4.2192    -0.3730 C.ar    
  15 C15           -3.5588     3.5245    -0.2831 C.ar    
  16 C16            2.5675    -1.2788    -1.1806 C.3     
  17 C17            3.7587    -0.6309    -1.8382 C.ar    
  18 C18            5.0028    -0.6617    -1.2126 C.ar    
  19 N19            6.0613    -0.1094    -1.7543 N.ar    
  20 C20            5.9934     0.5105    -2.9364 C.ar    
  21 C21            4.7578     0.5783    -3.6272 C.ar    
  22 C22            3.6206    -0.0178    -3.0512 C.ar    
  23 C23            4.6918     1.2316    -4.8686 C.ar    
  24 C24            7.1317     1.1015    -3.5125 C.ar    
  25 C25            7.0316     1.7261    -4.7173 C.ar    
  26 C26            5.8153     1.7923    -5.3943 C.ar    
  27 C27           -6.0267     6.3489    -0.2570 C.2     
  28 O28           -7.1697     5.7018    -0.5583 O.3     
  29 O29           -6.0397     7.5491    -0.0682 O.2     
  30 C30           -8.3783     6.5023    -0.6406 C.3     
  31 H31            0.6320     0.1728     2.0636 H       
  32 H32           -1.0044    -0.1647     1.4399 H       
  33 H33            0.7412    -1.7917     0.6081 H       
  34 H34           -0.0872    -0.9116    -0.6992 H       
  35 H35            2.6907     1.3160    -1.4038 H       
  36 H36            1.0270     0.8646    -1.8491 H       
  37 H37            0.9496     2.9502    -0.5766 H       
  38 H38            1.9213     2.2282     0.7330 H       
  39 H39           -0.3492     3.9060    -0.1343 H       
  40 H40           -1.4762     6.0847     0.4912 H       
  41 H41           -3.5828     7.3369     0.3242 H       
  42 H42           -5.6586     3.6987    -0.6146 H       
  43 H43           -3.5444     2.4583    -0.4546 H       
  44 H44            2.9008    -2.1209    -0.5740 H       
  45 H45            1.8777    -1.6331    -1.9465 H       
  46 H46            5.0979    -1.1532    -0.2556 H       
  47 H47            2.6636     0.0151    -3.5507 H       
  48 H48            3.7551     1.2884    -5.4032 H       
  49 H49            8.0818     1.0602    -3.0006 H       
  50 H50            7.9088     2.1788    -5.1554 H       
  51 H51            5.7638     2.2936    -6.3495 H       
  52 H52           -8.5598     6.9859     0.3192 H       
  53 H53           -8.2593     7.2618    -1.4133 H       
  54 H54           -9.2232     5.8601    -0.8894 H       
@<TRIPOS>BOND
   1    1    2 1
   2    1    6 1
   3    1    7 am
   4    2    3 1
   5    2   31 1
   6    2   32 1
   7    3    4 1
   8    3   33 1
   9    3   34 1
  10    4    5 1
  11    4   16 1
  12    5    6 1
  13    5   35 1
  14    5   36 1
  15    6   37 1
  16    6   38 1
  17    7    8 2
  18    7    9 am
  19    9   10 1
  20    9   39 1
  21   10   11 ar
  22   10   15 ar
  23   11   12 ar
  24   11   40 1
  25   12   13 ar
  26   12   41 1
  27   13   14 ar
  28   13   27 1
  29   14   15 ar
  30   14   42 1
  31   15   43 1
  32   16   17 1
  33   16   44 1
  34   16   45 1
  35   17   18 ar
  36   17   22 ar
  37   18   19 ar
  38   18   46 1
  39   19   20 ar
  40   20   21 ar
  41   20   24 ar
  42   21   22 ar
  43   21   23 ar
  44   22   47 1
  45   23   26 ar
  46   23   48 1
  47   24   25 ar
  48   24   49 1
  49   25   26 ar
  50   25   50 1
  51   26   51 1
  52   27   28 1
  53   27   29 2
  54   28   30 1
  55   30   52 1
  56   30   53 1
  57   30   54 1

#	End of record

