#	Name: ASD01028517
#	Creating user name:	WinNT
#	Creation time:	15. 06. 2019 18:57

#	Modifying user name:	WinNT
#	Modification time:	15. 06. 2019 18:57

#	Program:	/corina/corina34_cracker 3.40 0067  02.08.2006

@<TRIPOS>MOLECULE
ASD01028517
  51   55    0    0    0
SMALL
NO_CHARGES


@<TRIPOS>ATOM
   1 C1            -0.0162     1.3467     0.0094 C.2     
   2 N2             0.0021    -0.0041     0.0020 N.pl3   
   3 C3            -1.3141    -0.4013     0.0130 C.2     
   4 N4            -2.0463     0.7006     0.0261 N.2     
   5 N5            -1.2694     1.7271     0.0292 N.2     
   6 N6             1.0212    -0.9584    -0.0136 N.2     
   7 C7             0.7333    -2.2412    -0.0180 C.2     
   8 C8            -0.6076    -2.6804    -0.0075 C.2     
   9 C9            -1.6212    -1.7751     0.0087 C.2     
  10 C10            1.8313    -3.2388    -0.0347 C.ar    
  11 C11            3.1594    -2.8170    -0.0456 C.ar    
  12 C12            4.1768    -3.7494    -0.0607 C.ar    
  13 C13            3.8802    -5.1005    -0.0649 C.ar    
  14 C14            2.5637    -5.5249    -0.0540 C.ar    
  15 C15            1.5384    -4.6012    -0.0336 C.ar    
  16 C16            1.1881     2.2526     0.0028 C.3     
  17 C17            1.5819     2.5669    -1.4418 C.3     
  18 C18            2.8047     3.4865    -1.4486 C.3     
  19 C19            3.1926     3.7961    -2.8715 C.ar    
  20 C20            4.1524     3.0647    -3.5124 C.ar    
  21 C21            4.4953     3.3683    -4.8276 C.ar    
  22 N22            3.9195     4.3478    -5.4820 N.ar    
  23 C23            2.9729     5.1019    -4.9131 C.ar    
  24 C24            2.5722     4.8424    -3.5785 C.ar    
  25 C25            2.3598     6.1492    -5.6199 C.ar    
  26 C26            1.3955     6.9024    -5.0129 C.ar    
  27 C27            1.0074     6.6465    -3.6937 C.ar    
  28 C28            1.5768     5.6359    -2.9837 C.ar    
  29 O29            0.8054     7.9147    -5.7000 O.3     
  30 C30           -0.1961     8.6677    -5.0130 C.3     
  31 H31           -0.8288    -3.7375    -0.0120 H       
  32 H32           -2.6494    -2.1055     0.0167 H       
  33 H33            3.3921    -1.7623    -0.0427 H       
  34 H34            5.2065    -3.4236    -0.0695 H       
  35 H35            4.6795    -5.8267    -0.0770 H       
  36 H36            2.3378    -6.5810    -0.0577 H       
  37 H37            0.5109    -4.9337    -0.0252 H       
  38 H38            0.9485     3.1795     0.5239 H       
  39 H39            2.0183     1.7570     0.5061 H       
  40 H40            1.8215     1.6400    -1.9630 H       
  41 H41            0.7518     3.0625    -1.9451 H       
  42 H42            2.5651     4.4134    -0.9275 H       
  43 H43            3.6348     2.9909    -0.9453 H       
  44 H44            4.6451     2.2521    -2.9993 H       
  45 H45            5.2558     2.7816    -5.3214 H       
  46 H46            2.6498     6.3584    -6.6390 H       
  47 H47            0.2429     7.2559    -3.2348 H       
  48 H48            1.2690     5.4475    -1.9657 H       
  49 H49           -1.0079     8.0046    -4.7139 H       
  50 H50            0.2403     9.1300    -4.1277 H       
  51 H51           -0.5849     9.4428    -5.6735 H       
@<TRIPOS>BOND
   1    1    2 1
   2    1   16 1
   3    1    5 2
   4    2    3 1
   5    2    6 1
   6    3    4 2
   7    3    9 1
   8    4    5 1
   9    6    7 2
  10    7    8 1
  11    7   10 1
  12    8    9 2
  13    8   31 1
  14    9   32 1
  15   10   11 ar
  16   10   15 ar
  17   11   12 ar
  18   11   33 1
  19   12   13 ar
  20   12   34 1
  21   13   14 ar
  22   13   35 1
  23   14   15 ar
  24   14   36 1
  25   15   37 1
  26   16   17 1
  27   16   38 1
  28   16   39 1
  29   17   18 1
  30   17   40 1
  31   17   41 1
  32   18   19 1
  33   18   42 1
  34   18   43 1
  35   19   20 ar
  36   19   24 ar
  37   20   21 ar
  38   20   44 1
  39   21   22 ar
  40   21   45 1
  41   22   23 ar
  42   23   24 ar
  43   23   25 ar
  44   24   28 ar
  45   25   26 ar
  46   25   46 1
  47   26   27 ar
  48   26   29 1
  49   27   28 ar
  50   27   47 1
  51   28   48 1
  52   29   30 1
  53   30   49 1
  54   30   50 1
  55   30   51 1

#	End of record

