#	Name: ASD06600035
#	Creating user name:	WinNT
#	Creation time:	15. 06. 2019 21:07

#	Modifying user name:	WinNT
#	Modification time:	15. 06. 2019 21:07

#	Program:	/corina/corina34_cracker 3.40 0067  02.08.2006

@<TRIPOS>MOLECULE
ASD06600035
 286  289    0    0    0
SMALL
NO_CHARGES


@<TRIPOS>ATOM
   1 C1            -0.9414    10.0043     7.1342 C.2     
   2 O2            -0.7634     8.8612     7.4981 O.2     
   3 N3             1.3171    10.3987     7.9294 N.am    
   4 C4             0.1509    11.0283     7.3051 C.3     
   5 C5             0.5448    11.5872     5.9363 C.3     
   6 C6             1.5482    12.6970     6.1167 C.2     
   7 C7             2.7637    12.7661     5.5411 C.2     
   8 N8             3.3402    13.9305     5.9717 N.pl3   
   9 C9             2.4562    14.5329     6.7959 C.2     
  10 N10            1.3849    13.7919     6.8740 N.2     
  11 C11           -4.0753     9.7759     5.2662 C.2     
  12 O12           -3.8543    10.8034     4.6609 O.2     
  13 N13           -2.1143    10.3576     6.5719 N.am    
  14 C14           -3.1740     9.3607     6.4003 C.3     
  15 C15           -3.9911     9.2578     7.6897 C.3     
  16 C16           -7.3662     8.7948     4.0128 C.2     
  17 O17           -7.5384     7.9560     4.8717 O.2     
  18 N18           -5.1271     9.0055     4.9246 N.am    
  19 C19           -6.0033     9.4091     3.8221 C.3     
  20 C20           -5.4088     8.9297     2.4963 C.3     
  21 C21           -4.0852     9.6530     2.2398 C.3     
  22 C22           -5.1610     7.4215     2.5643 C.3     
  23 C23          -10.4495     8.6448     2.0548 C.2     
  24 O24           -9.9488     9.2298     1.1178 O.2     
  25 N25           -8.3936     9.1775     3.2289 N.am    
  26 C26           -9.6954     8.5171     3.3533 C.3     
  27 C27          -10.4974     9.1783     4.4760 C.3     
  28 C28           -9.8042     8.9443     5.7935 C.2     
  29 C29           -9.4238     9.8957     6.6675 C.2     
  30 N30           -8.8366     9.2518     7.7231 N.pl3   
  31 C31           -8.8786     7.9284     7.4572 C.2     
  32 N32           -9.4631     7.7518     6.3039 N.2     
  33 C33          -13.8934     8.1361     0.9396 C.2     
  34 O34          -14.2961     7.9787     2.0727 O.2     
  35 N35          -11.6803     8.1089     1.9348 N.am    
  36 C36          -12.4134     8.2330     0.6726 C.3     
  37 C37          -11.9914     7.1084    -0.2751 C.3     
  38 C38          -16.9121     7.6472    -1.0633 C.2     
  39 O39          -16.2748     7.4057    -2.0665 O.2     
  40 N40          -14.7694     8.2241    -0.0808 N.am    
  41 C41          -16.2082     8.1299     0.1787 C.3     
  42 C42          -16.7476     9.5077     0.5678 C.3     
  43 C43          -16.1338     9.9366     1.8756 C.ar    
  44 C44          -14.9515    10.6534     1.8809 C.ar    
  45 C45          -14.3865    11.0472     3.0785 C.ar    
  46 C46          -15.0068    10.7233     4.2764 C.ar    
  47 O47          -14.4533    11.1100     5.4558 O.3     
  48 C48          -16.1933    10.0044     4.2684 C.ar    
  49 C49          -16.7569     9.6174     3.0679 C.ar    
  50 C50          -20.3675     7.4798    -2.2445 C.2     
  51 O51          -20.7770     8.1385    -1.3121 O.2     
  52 N52          -18.2499     7.4838    -1.0592 N.am    
  53 C53          -18.9343     7.0146    -2.2666 C.3     
  54 C54          -18.8950     5.4858    -2.3135 C.3     
  55 C55          -17.4460     5.0172    -2.4615 C.3     
  56 C56          -17.4067     3.4884    -2.5084 C.3     
  57 N57          -16.0193     3.0397    -2.6501 N.pl3   
  58 C58          -15.7346     1.6963    -2.7147 C.2     
  59 N59          -16.6989     0.8218    -2.6498 N.2     
  60 N60          -14.4326     1.2752    -2.8476 N.pl3   
  61 C61          -23.4293     6.6897    -4.0787 C.2     
  62 O62          -22.9160     5.7447    -4.6394 O.2     
  63 N63          -21.1942     7.1639    -3.2610 N.am    
  64 C64          -22.5875     7.6162    -3.2396 C.3     
  65 C65          -22.6719     9.0351    -3.8057 C.3     
  66 C66          -21.9311     9.9829    -2.8980 C.2     
  67 C67          -20.9381    10.8157    -3.2642 C.2     
  68 N68          -20.5523    11.4912    -2.1379 N.pl3   
  69 C69          -21.3234    11.0474    -1.1220 C.2     
  70 N70          -22.1491    10.1491    -1.5851 N.2     
  71 C71          -26.7924     6.7457    -5.5102 C.2     
  72 O72          -26.9626     7.9076    -5.2068 O.2     
  73 N73          -24.7526     6.9113    -4.2061 N.am    
  74 C74          -25.5709     6.0106    -5.0218 C.3     
  75 C75          -26.0021     4.8090    -4.1784 C.3     
  76 C76          -24.7692     3.9922    -3.7866 C.3     
  77 C77          -25.2004     2.7907    -2.9432 C.3     
  78 N78          -24.0198     2.0086    -2.5680 N.pl3   
  79 C79          -24.1610     0.8745    -1.8037 C.2     
  80 N80          -23.1106     0.1787    -1.4698 N.2     
  81 N81          -25.4100     0.4745    -1.3915 N.pl3   
  82 C82          -29.9841     5.8379    -7.0438 C.2     
  83 O83          -29.7955     4.6529    -6.8675 O.2     
  84 N84          -27.6957     6.1121    -6.2842 N.am    
  85 C85          -28.8831     6.8267    -6.7590 C.3     
  86 C86          -28.5404     7.5911    -8.0393 C.3     
  87 C87          -27.5122     8.6793    -7.7238 C.3     
  88 C88          -27.1694     9.4437    -9.0041 C.3     
  89 N89          -26.1849    10.4857    -8.7020 N.pl3   
  90 C90          -25.7230    11.3061    -9.7038 C.2     
  91 N91          -26.1609    11.1568   -10.9224 N.2     
  92 N92          -24.7991    12.2840    -9.4203 N.pl3   
  93 C93          -33.1960     5.8913    -8.7886 C.2     
  94 O94          -32.9967     6.9999    -9.2381 O.2     
  95 N95          -31.1784     6.2704    -7.4945 N.am    
  96 C96          -32.2487     5.3091    -7.7714 C.3     
  97 C97          -33.0104     5.0077    -6.4791 C.3     
  98 C98          -36.5235     5.1705   -10.0856 C.2     
  99 O99          -36.7182     4.1910    -9.3975 O.2     
 100 N100         -34.2646     5.1799    -9.1989 N.am    
 101 C101         -35.1236     5.6982   -10.2665 C.3     
 102 C102         -34.5796     5.2464   -11.6234 C.3     
 103 C103         -35.3779     5.9185   -12.7423 C.3     
 104 C104         -35.1153     7.4256   -12.7217 C.3     
 105 C105         -34.9460     5.3439   -14.0929 C.3     
 106 C106         -39.8079     5.7088   -11.5977 C.2     
 107 O107         -39.3354     6.2899   -12.5517 O.2     
 108 N108         -37.5593     5.7872   -10.6885 N.am    
 109 C109         -38.9298     5.3388   -10.4302 C.3     
 110 C110         -39.4566     6.0133    -9.1620 C.3     
 111 O111         -39.5542     7.4225    -9.3774 O.3     
 112 C112         -42.4582     7.1703   -12.5504 C.2     
 113 O113         -42.1259     7.8135   -11.5831 O.2     
 114 N114         -41.1183     5.3940   -11.5818 N.am    
 115 C115         -41.9719     5.7537   -12.7168 C.3     
 116 C116         -43.1716     4.8059   -12.7732 C.3     
 117 C117         -43.9960     5.1008   -14.0279 C.3     
 118 C118         -45.1236     4.0739   -14.1503 C.3     
 119 C119         -44.0418     5.0103   -11.5315 C.3     
 120 O120         -43.2606     7.7176   -13.4770 O.3     
 121 C121           2.1922    11.1466     8.6304 C.2     
 122 O122           2.0141    12.3409     8.7444 O.2     
 123 C123          17.6884    13.3377    18.9385 C.3     
 124 C124          16.4704    13.9953    18.2864 C.3     
 125 C125          15.6460    12.9322    17.5577 C.3     
 126 C126          14.4280    13.5897    16.9056 C.3     
 127 C127          13.6036    12.5267    16.1768 C.3     
 128 C128          12.3857    13.1842    15.5248 C.3     
 129 C129          11.5613    12.1211    14.7960 C.3     
 130 C130          10.3433    12.7787    14.1440 C.3     
 131 C131           9.5189    11.7156    13.4152 C.3     
 132 C132           8.3009    12.3731    12.7631 C.3     
 133 C133           7.4765    11.3101    12.0343 C.3     
 134 C134           6.2586    11.9676    11.3823 C.3     
 135 C135           5.4342    10.9045    10.6535 C.3     
 136 C136           4.2162    11.5621    10.0015 C.3     
 137 C137           3.3918    10.4990     9.2727 C.3     
 138 H138           1.4595     9.4436     7.8383 H       
 139 H139          -0.2072    11.8393     7.9393 H       
 140 H140           0.9853    10.7935     5.3329 H       
 141 H141          -0.3410    11.9763     5.4342 H       
 142 H142           3.2000    12.0418     4.8692 H       
 143 H143           4.2194    14.2613     5.7299 H       
 144 H144           2.6090    15.4740     7.3033 H       
 145 H145          -2.2567    11.2718     6.2809 H       
 146 H146          -2.7284     8.3920     6.1743 H       
 147 H147          -4.7796     8.5161     7.5620 H       
 148 H148          -3.3391     8.9575     8.5100 H       
 149 H149          -4.4367    10.2266     7.9158 H       
 150 H150          -5.3039     8.1837     5.4087 H       
 151 H151          -6.0931    10.4953     3.8083 H       
 152 H152          -6.1048     9.1474     1.6862 H       
 153 H153          -3.3892     9.4353     3.0499 H       
 154 H154          -3.6616     9.3115     1.2953 H       
 155 H155          -4.2618    10.7275     2.1913 H       
 156 H156          -4.5342     7.1948     3.4268 H       
 157 H157          -6.1137     6.9007     2.6606 H       
 158 H158          -4.6585     7.0944     1.6540 H       
 159 H159          -8.2710     9.8902     2.5824 H       
 160 H160          -9.5471     7.4625     3.5851 H       
 161 H161         -10.5697    10.2496     4.2887 H       
 162 H162         -11.4979     8.7471     4.5103 H       
 163 H163          -9.5563    10.9618     6.5567 H       
 164 H164          -8.4606     9.6682     8.5143 H       
 165 H165          -8.4956     7.1457     8.0952 H       
 166 H166         -12.0807     7.6410     2.6843 H       
 167 H167         -12.1891     9.1968     0.2154 H       
 168 H168         -12.5368     7.2008    -1.2142 H       
 169 H169         -10.9209     7.1786    -0.4682 H       
 170 H170         -12.2157     6.1447     0.1821 H       
 171 H171         -14.4473     8.3500    -0.9871 H       
 172 H172         -16.3852     7.4272     0.9930 H       
 173 H173         -16.4923    10.2301    -0.2076 H       
 174 H174         -17.8312     9.4569     0.6743 H       
 175 H175         -14.4690    10.9053     0.9481 H       
 176 H176         -13.4626    11.6065     3.0822 H       
 177 H177         -14.7506    11.9769     5.7644 H       
 178 H178         -16.6778     9.7508     5.1996 H       
 179 H179         -17.6828     9.0615     3.0609 H       
 180 H180         -18.7597     7.6770    -0.2568 H       
 181 H181         -18.4348     7.4181    -3.1473 H       
 182 H182         -19.3147     5.0831    -1.3917 H       
 183 H183         -19.4794     5.1333    -3.1633 H       
 184 H184         -17.0263     5.4199    -3.3833 H       
 185 H185         -16.8615     5.3698    -1.6117 H       
 186 H186         -17.8265     3.0857    -1.5866 H       
 187 H187         -17.9912     3.1359    -3.3583 H       
 188 H188         -15.3017     3.6905    -2.6984 H       
 189 H189         -16.4980    -0.1261    -2.6953 H       
 190 H190         -13.7149     1.9260    -2.8959 H       
 191 H191         -14.2317     0.3273    -2.8932 H       
 192 H192         -20.8667     6.6371    -4.0068 H       
 193 H193         -22.9552     7.6119    -2.2135 H       
 194 H194         -22.2229     9.0574    -4.7987 H       
 195 H195         -23.7168     9.3381    -3.8725 H       
 196 H196         -20.5253    10.9286    -4.2557 H       
 197 H197         -19.8552    12.1632    -2.0803 H       
 198 H198         -21.2688    11.3833    -0.0970 H       
 199 H199         -25.1632     7.6671    -3.7576 H       
 200 H200         -24.9891     5.6648    -5.8762 H       
 201 H201         -26.5070     5.1594    -3.2782 H       
 202 H202         -26.6828     4.1845    -4.7570 H       
 203 H203         -24.2643     3.6419    -4.6868 H       
 204 H204         -24.0885     4.6167    -3.2079 H       
 205 H205         -25.7052     3.1410    -2.0430 H       
 206 H206         -25.8810     2.1662    -3.5218 H       
 207 H207         -23.1385     2.2908    -2.8588 H       
 208 H208         -23.2102    -0.6214    -0.9305 H       
 209 H209         -26.1917     0.9923    -1.6399 H       
 210 H210         -25.5096    -0.3256    -0.8522 H       
 211 H211         -27.5596     5.1828    -6.5268 H       
 212 H212         -29.2145     7.5291    -5.9942 H       
 213 H213         -28.1254     6.9013    -8.7742 H       
 214 H214         -29.4436     8.0501    -8.4413 H       
 215 H215         -27.9272     9.3691    -6.9889 H       
 216 H216         -26.6090     8.2203    -7.3219 H       
 217 H217         -26.7545     8.7539    -9.7390 H       
 218 H218         -28.0726     9.9027    -9.4061 H       
 219 H219         -25.8591    10.5968    -7.7952 H       
 220 H220         -25.8349    11.7357   -11.6292 H       
 221 H221         -24.4732    12.3951    -8.5135 H       
 222 H222         -24.4731    12.8628   -10.1271 H       
 223 H223         -31.3293     7.2182    -7.6355 H       
 224 H224         -31.8173     4.3876    -8.1622 H       
 225 H225         -33.4418     5.9292    -6.0883 H       
 226 H226         -33.8067     4.2925    -6.6851 H       
 227 H227         -32.3252     4.5867    -5.7433 H       
 228 H228         -34.4650     4.3247    -8.7874 H       
 229 H229         -35.1376     6.7873   -10.2251 H       
 230 H230         -33.5300     5.5282   -11.7061 H       
 231 H231         -34.6731     4.1639   -11.7101 H       
 232 H232         -36.4414     5.7329   -12.5918 H       
 233 H233         -35.6081     7.8920   -13.5748 H       
 234 H234         -35.5085     7.8504   -11.7981 H       
 235 H235         -34.0421     7.6082   -12.7775 H       
 236 H236         -35.1331     4.2702   -14.1075 H       
 237 H237         -35.5147     5.8227   -14.8900 H       
 238 H238         -33.8825     5.5295   -14.2433 H       
 239 H239         -37.3972     6.5279   -11.2935 H       
 240 H240         -38.9391     4.2570   -10.2971 H       
 241 H241         -40.4414     5.6136    -8.9202 H       
 242 H242         -38.7726     5.8185    -8.3359 H       
 243 H243         -39.8824     7.9155    -8.6129 H       
 244 H244         -41.4962     4.9292   -10.8189 H       
 245 H245         -41.4005     5.6719   -13.6414 H       
 246 H246         -42.8191     3.7750   -12.8041 H       
 247 H247         -44.4222     6.1014   -13.9557 H       
 248 H248         -43.3539     5.0418   -14.9067 H       
 249 H249         -45.7657     4.1328   -13.2715 H       
 250 H250         -45.7109     4.2840   -15.0442 H       
 251 H251         -44.6974     3.0732   -14.2224 H       
 252 H252         -44.3944     6.0413   -11.5006 H       
 253 H253         -44.8966     4.3351   -11.5716 H       
 254 H254         -43.4545     4.8002   -10.6376 H       
 255 H255         -43.5467     8.6290   -13.3268 H       
 256 H256          17.3558    12.5837    19.6519 H       
 257 H257          18.3013    12.8660    18.1704 H       
 258 H258          18.2757    14.0951    19.4577 H       
 259 H259          15.8575    14.4670    19.0545 H       
 260 H260          16.8030    14.7493    17.5731 H       
 261 H261          16.2589    12.4605    16.7896 H       
 262 H262          15.3134    12.1781    18.2710 H       
 263 H263          13.8151    14.0615    17.6737 H       
 264 H264          14.7606    14.3438    16.1922 H       
 265 H265          14.2166    12.0549    15.4088 H       
 266 H266          13.2710    11.7726    16.8902 H       
 267 H267          11.7727    13.6559    16.2928 H       
 268 H268          12.7183    13.9382    14.8114 H       
 269 H269          12.1742    11.6494    14.0280 H       
 270 H270          11.2287    11.3671    15.5094 H       
 271 H271           9.7304    13.2504    14.9120 H       
 272 H272          10.6759    13.5327    13.4306 H       
 273 H273          10.1318    11.2439    12.6471 H       
 274 H274           9.1863    10.9615    14.1285 H       
 275 H275           7.6880    12.8449    13.5312 H       
 276 H276           8.6335    13.1272    12.0498 H       
 277 H277           8.0895    10.8383    11.2663 H       
 278 H278           7.1439    10.5560    12.7477 H       
 279 H279           5.6457    12.4393    12.1503 H       
 280 H280           6.5912    12.7216    10.6689 H       
 281 H281           6.0471    10.4328     9.8855 H       
 282 H282           5.1016    10.1505    11.3669 H       
 283 H283           3.6033    12.0338    10.7695 H       
 284 H284           4.5488    12.3161     9.2881 H       
 285 H285           3.0592     9.7449     9.9861 H       
 286 H286           4.0047    10.0273     8.5047 H       
@<TRIPOS>BOND
   1    1    2 2
   2    1    4 1
   3    1   13 am
   4    3  121 am
   5    3    4 1
   6    3  138 1
   7    4    5 1
   8    4  139 1
   9    5    6 1
  10    5  140 1
  11    5  141 1
  12    6    7 2
  13    6   10 1
  14    7    8 1
  15    7  142 1
  16    8    9 1
  17    8  143 1
  18    9   10 2
  19    9  144 1
  20   11   12 2
  21   11   14 1
  22   11   18 am
  23   13   14 1
  24   13  145 1
  25   14   15 1
  26   14  146 1
  27   15  147 1
  28   15  148 1
  29   15  149 1
  30   16   17 2
  31   16   19 1
  32   16   25 am
  33   18   19 1
  34   18  150 1
  35   19   20 1
  36   19  151 1
  37   20   21 1
  38   20   22 1
  39   20  152 1
  40   21  153 1
  41   21  154 1
  42   21  155 1
  43   22  156 1
  44   22  157 1
  45   22  158 1
  46   23   24 2
  47   23   26 1
  48   23   35 am
  49   25   26 1
  50   25  159 1
  51   26   27 1
  52   26  160 1
  53   27   28 1
  54   27  161 1
  55   27  162 1
  56   28   29 2
  57   28   32 1
  58   29   30 1
  59   29  163 1
  60   30   31 1
  61   30  164 1
  62   31   32 2
  63   31  165 1
  64   33   34 2
  65   33   36 1
  66   33   40 am
  67   35   36 1
  68   35  166 1
  69   36   37 1
  70   36  167 1
  71   37  168 1
  72   37  169 1
  73   37  170 1
  74   38   39 2
  75   38   41 1
  76   38   52 am
  77   40   41 1
  78   40  171 1
  79   41   42 1
  80   41  172 1
  81   42   43 1
  82   42  173 1
  83   42  174 1
  84   43   44 ar
  85   43   49 ar
  86   44   45 ar
  87   44  175 1
  88   45   46 ar
  89   45  176 1
  90   46   47 1
  91   46   48 ar
  92   47  177 1
  93   48   49 ar
  94   48  178 1
  95   49  179 1
  96   50   51 2
  97   50   53 1
  98   50   63 am
  99   52   53 1
 100   52  180 1
 101   53   54 1
 102   53  181 1
 103   54   55 1
 104   54  182 1
 105   54  183 1
 106   55   56 1
 107   55  184 1
 108   55  185 1
 109   56   57 1
 110   56  186 1
 111   56  187 1
 112   57   58 1
 113   57  188 1
 114   58   59 2
 115   58   60 1
 116   59  189 1
 117   60  190 1
 118   60  191 1
 119   61   62 2
 120   61   64 1
 121   61   73 am
 122   63   64 1
 123   63  192 1
 124   64   65 1
 125   64  193 1
 126   65   66 1
 127   65  194 1
 128   65  195 1
 129   66   67 2
 130   66   70 1
 131   67   68 1
 132   67  196 1
 133   68   69 1
 134   68  197 1
 135   69   70 2
 136   69  198 1
 137   71   72 2
 138   71   74 1
 139   71   84 am
 140   73   74 1
 141   73  199 1
 142   74   75 1
 143   74  200 1
 144   75   76 1
 145   75  201 1
 146   75  202 1
 147   76   77 1
 148   76  203 1
 149   76  204 1
 150   77   78 1
 151   77  205 1
 152   77  206 1
 153   78   79 1
 154   78  207 1
 155   79   80 2
 156   79   81 1
 157   80  208 1
 158   81  209 1
 159   81  210 1
 160   82   83 2
 161   82   85 1
 162   82   95 am
 163   84   85 1
 164   84  211 1
 165   85   86 1
 166   85  212 1
 167   86   87 1
 168   86  213 1
 169   86  214 1
 170   87   88 1
 171   87  215 1
 172   87  216 1
 173   88   89 1
 174   88  217 1
 175   88  218 1
 176   89   90 1
 177   89  219 1
 178   90   91 2
 179   90   92 1
 180   91  220 1
 181   92  221 1
 182   92  222 1
 183   93   94 2
 184   93   96 1
 185   93  100 am
 186   95   96 1
 187   95  223 1
 188   96   97 1
 189   96  224 1
 190   97  225 1
 191   97  226 1
 192   97  227 1
 193   98   99 2
 194   98  101 1
 195   98  108 am
 196  100  101 1
 197  100  228 1
 198  101  102 1
 199  101  229 1
 200  102  103 1
 201  102  230 1
 202  102  231 1
 203  103  104 1
 204  103  105 1
 205  103  232 1
 206  104  233 1
 207  104  234 1
 208  104  235 1
 209  105  236 1
 210  105  237 1
 211  105  238 1
 212  106  107 2
 213  106  109 1
 214  106  114 am
 215  108  109 1
 216  108  239 1
 217  109  110 1
 218  109  240 1
 219  110  111 1
 220  110  241 1
 221  110  242 1
 222  111  243 1
 223  112  113 2
 224  112  115 1
 225  112  120 1
 226  114  115 1
 227  114  244 1
 228  115  116 1
 229  115  245 1
 230  116  117 1
 231  116  119 1
 232  116  246 1
 233  117  118 1
 234  117  247 1
 235  117  248 1
 236  118  249 1
 237  118  250 1
 238  118  251 1
 239  119  252 1
 240  119  253 1
 241  119  254 1
 242  120  255 1
 243  121  122 2
 244  121  137 1
 245  123  124 1
 246  123  256 1
 247  123  257 1
 248  123  258 1
 249  124  125 1
 250  124  259 1
 251  124  260 1
 252  125  126 1
 253  125  261 1
 254  125  262 1
 255  126  127 1
 256  126  263 1
 257  126  264 1
 258  127  128 1
 259  127  265 1
 260  127  266 1
 261  128  129 1
 262  128  267 1
 263  128  268 1
 264  129  130 1
 265  129  269 1
 266  129  270 1
 267  130  131 1
 268  130  271 1
 269  130  272 1
 270  131  132 1
 271  131  273 1
 272  131  274 1
 273  132  133 1
 274  132  275 1
 275  132  276 1
 276  133  134 1
 277  133  277 1
 278  133  278 1
 279  134  135 1
 280  134  279 1
 281  134  280 1
 282  135  136 1
 283  135  281 1
 284  135  282 1
 285  136  137 1
 286  136  283 1
 287  136  284 1
 288  137  285 1
 289  137  286 1

#	End of record

