#	Name: ASD01120244
#	Creating user name:	WinNT
#	Creation time:	15. 06. 2019 18:59

#	Modifying user name:	WinNT
#	Modification time:	15. 06. 2019 18:59

#	Program:	/corina/corina34_cracker 3.40 0067  02.08.2006

@<TRIPOS>MOLECULE
ASD01120244
  62   64    0    0    0
SMALL
NO_CHARGES


@<TRIPOS>ATOM
   1 C1            -0.0167     1.3779     0.0096 C.ar    
   2 C2             0.0021    -0.0041     0.0020 C.ar    
   3 C3            -1.1857    -0.7116     0.0095 C.ar    
   4 C4            -2.3919    -0.0369     0.0251 C.ar    
   5 C5            -2.4106     1.3455     0.0336 C.ar    
   6 C6            -1.2232     2.0528     0.0305 C.ar    
   7 S7            -3.9483     2.2057     0.0529 S.o2    
   8 N8            -4.3616     2.4354     1.6399 N.am    
   9 C9            -3.6009     3.2212     2.4274 C.2     
  10 N10           -3.9372     3.4082     3.7191 N.am    
  11 O11           -3.6934     3.4955    -0.4862 O.2     
  12 O12           -4.9136     1.3142    -0.4882 O.2     
  13 O13           -2.6111     3.7615     1.9726 O.2     
  14 C14            3.1949     2.1566     9.4023 C.ar    
  15 C15            4.4224     2.6885     9.0551 C.ar    
  16 C16            4.6958     4.0197     9.3096 C.ar    
  17 C17            3.7416     4.8185     9.9111 C.ar    
  18 C18            2.5138     4.2863    10.2584 C.ar    
  19 C19            2.2383     2.9570     9.9989 C.ar    
  20 S20            1.2974     5.3046    11.0253 S.o2    
  21 N21            0.3878     5.9772     9.8159 N.am    
  22 C22           -0.3729     5.1913     9.0283 C.2     
  23 N23           -1.1132     5.7387     8.0440 N.am    
  24 O24            0.4334     4.4301    11.7381 O.2     
  25 O25            2.0004     6.3750    11.6412 O.2     
  26 O26           -0.3915     3.9886     9.2059 O.2     
  27 C27            2.8969     0.7056     9.1251 C.3     
  28 C28            1.2780     2.1491     0.0014 C.3     
  29 C29           -1.9401     4.8845     7.1880 C.3     
  30 C30           -3.0979     5.7046     6.6153 C.3     
  31 C31           -3.9615     4.8125     5.7213 C.3     
  32 C32           -3.1103     4.2624     4.5751 C.3     
  33 C33           -1.9525     3.4423     5.1478 C.3     
  34 C34           -1.0889     4.3344     6.0418 C.3     
  35 H35            0.9446    -0.5313    -0.0101 H       
  36 H36           -1.1711    -1.7915     0.0029 H       
  37 H37           -3.3198    -0.5895     0.0302 H       
  38 H38           -1.2378     3.1327     0.0372 H       
  39 H39           -5.1512     2.0044     2.0027 H       
  40 H40           -4.7269     2.9772     4.0819 H       
  41 H41            5.1681     2.0643     8.5854 H       
  42 H42            5.6552     4.4352     9.0389 H       
  43 H43            3.9555     5.8581    10.1105 H       
  44 H44            1.2792     2.5413    10.2702 H       
  45 H45            0.4026     6.9366     9.6742 H       
  46 H46           -1.0984     6.6982     7.9023 H       
  47 H47            3.1961     0.1029     9.9826 H       
  48 H48            1.8284     0.5814     8.9487 H       
  49 H49            3.4506     0.3830     8.2433 H       
  50 H50            1.5804     2.3405    -1.0282 H       
  51 H51            1.1397     3.0969     0.5217 H       
  52 H52            2.0505     1.5677     0.5048 H       
  53 H53           -2.3370     4.0567     7.7756 H       
  54 H54           -3.7043     6.0965     7.4318 H       
  55 H55           -2.7010     6.5324     6.0276 H       
  56 H56           -4.3584     3.9847     6.3089 H       
  57 H57           -4.7863     5.3968     5.3133 H       
  58 H58           -2.7134     5.0902     3.9875 H       
  59 H59           -2.3494     2.6145     5.7354 H       
  60 H60           -1.3461     3.0503     4.3313 H       
  61 H61           -0.6920     5.1622     5.4542 H       
  62 H62           -0.2641     3.7501     6.4498 H       
@<TRIPOS>BOND
   1    1    2 ar
   2    1   28 1
   3    1    6 ar
   4    2    3 ar
   5    2   35 1
   6    3    4 ar
   7    3   36 1
   8    4    5 ar
   9    4   37 1
  10    5    6 ar
  11    5    7 1
  12    6   38 1
  13    7    8 am
  14    7   11 2
  15    7   12 2
  16    8    9 am
  17    8   39 1
  18    9   10 am
  19    9   13 2
  20   10   32 1
  21   10   40 1
  22   14   15 ar
  23   14   27 1
  24   14   19 ar
  25   15   16 ar
  26   15   41 1
  27   16   17 ar
  28   16   42 1
  29   17   18 ar
  30   17   43 1
  31   18   19 ar
  32   18   20 1
  33   19   44 1
  34   20   21 am
  35   20   24 2
  36   20   25 2
  37   21   22 am
  38   21   45 1
  39   22   23 am
  40   22   26 2
  41   23   29 1
  42   23   46 1
  43   27   47 1
  44   27   48 1
  45   27   49 1
  46   28   50 1
  47   28   51 1
  48   28   52 1
  49   29   30 1
  50   29   34 1
  51   29   53 1
  52   30   31 1
  53   30   54 1
  54   30   55 1
  55   31   32 1
  56   31   56 1
  57   31   57 1
  58   32   33 1
  59   32   58 1
  60   33   34 1
  61   33   59 1
  62   33   60 1
  63   34   61 1
  64   34   62 1

#	End of record

