#	Name: ASD01812752
#	Creating user name:	WinNT
#	Creation time:	15. 06. 2019 19:29

#	Modifying user name:	WinNT
#	Modification time:	15. 06. 2019 19:29

#	Program:	/corina/corina34_cracker 3.40 0067  02.08.2006

@<TRIPOS>MOLECULE
ASD01812752
  56   59    0    0    0
SMALL
NO_CHARGES


@<TRIPOS>ATOM
   1 N1            -0.0158     1.3147     0.0093 N.ar    
   2 C2             0.0021    -0.0041     0.0020 C.ar    
   3 C3             1.1989    -0.7033    -0.0127 C.ar    
   4 C4             2.3829    -0.0013    -0.0202 C.ar    
   5 C5             2.3448     1.3978    -0.0128 C.ar    
   6 C6             1.0955     2.0332     0.0025 C.ar    
   7 C7             3.8373    -0.3889    -0.0363 C.3     
   8 N8             4.5955     0.8684    -0.0373 N.am    
   9 C9             3.7280     1.8961    -0.0237 C.2     
  10 C10            6.0558     0.9844    -0.0504 C.3     
  11 C11            6.5432     1.0311    -1.4757 C.ar    
  12 C12            6.6712     2.2479    -2.1207 C.ar    
  13 C13            7.1172     2.2963    -3.4260 C.ar    
  14 C14            7.4390     1.1168    -4.0936 C.ar    
  15 C15            7.3088    -0.1059    -3.4392 C.ar    
  16 C16            6.8664    -0.1426    -2.1322 C.ar    
  17 O17            1.0255     3.3856     0.0100 O.3     
  18 O18            4.0429     3.0706    -0.0212 O.2     
  19 C19           -0.2795     3.9677     0.0251 C.3     
  20 C20           -0.1576     5.4928     0.0317 C.3     
  21 O21            0.4365     5.9285    -1.1928 O.3     
  22 C22            7.9188     1.1628    -5.4980 C.2     
  23 C23            7.3311     1.8357    -6.5291 C.2     
  24 C24            9.0667     0.5246    -6.0066 C.2     
  25 N25            9.1540     0.8012    -7.2808 N.2     
  26 N26            8.0788     1.6267    -7.6314 N.pl3   
  27 C27            7.8099     2.1660    -8.9667 C.3     
  28 C28           10.0271    -0.3287    -5.2187 C.3     
  29 C29           -1.5482     6.1149     0.1735 C.3     
  30 C30           -1.4165     7.6336     0.3054 C.3     
  31 H31           -0.9309    -0.5480     0.0080 H       
  32 H32            1.2023    -1.7833    -0.0178 H       
  33 H33            4.0797    -0.9721     0.8522 H       
  34 H34            4.0624    -0.9631    -0.9351 H       
  35 H35            6.3524     1.8979     0.4651 H       
  36 H36            6.4932     0.1235     0.4552 H       
  37 H37            6.4214     3.1618    -1.6022 H       
  38 H38            7.2161     3.2469    -3.9290 H       
  39 H39            7.5569    -1.0233    -3.9522 H       
  40 H40            6.7686    -1.0898    -1.6226 H       
  41 H41           -0.8289     3.6509    -0.8614 H       
  42 H42           -0.8123     3.6419     0.9185 H       
  43 H43            0.4667     5.8038     0.8693 H       
  44 H44           -0.0666     5.6858    -1.9822 H       
  45 H45            6.4299     2.4282    -6.4727 H       
  46 H46            8.3043     3.1314    -9.0750 H       
  47 H47            8.1902     1.4765    -9.7204 H       
  48 H48            6.7352     2.2914    -9.0982 H       
  49 H49            9.6983    -1.3675    -5.2480 H       
  50 H50           11.0235    -0.2505    -5.6536 H       
  51 H51           10.0540     0.0149    -4.1846 H       
  52 H52           -2.1442     5.8771    -0.7075 H       
  53 H53           -2.0367     5.7141     1.0617 H       
  54 H54           -0.8204     7.8714     1.1864 H       
  55 H55           -0.9280     8.0344    -0.5828 H       
  56 H56           -2.4072     8.0768     0.4065 H       
@<TRIPOS>BOND
   1    1    2 ar
   2    1    6 ar
   3    2    3 ar
   4    2   31 1
   5    3    4 ar
   6    3   32 1
   7    4    7 1
   8    4    5 ar
   9    5    6 ar
  10    5    9 1
  11    6   17 1
  12    7    8 1
  13    7   33 1
  14    7   34 1
  15    8    9 am
  16    8   10 1
  17    9   18 2
  18   10   11 1
  19   10   35 1
  20   10   36 1
  21   11   12 ar
  22   11   16 ar
  23   12   13 ar
  24   12   37 1
  25   13   14 ar
  26   13   38 1
  27   14   15 ar
  28   14   22 1
  29   15   16 ar
  30   15   39 1
  31   16   40 1
  32   17   19 1
  33   19   20 1
  34   19   41 1
  35   19   42 1
  36   20   21 1
  37   20   29 1
  38   20   43 1
  39   21   44 1
  40   22   24 1
  41   22   23 2
  42   23   26 1
  43   23   45 1
  44   24   25 2
  45   24   28 1
  46   25   26 1
  47   26   27 1
  48   27   46 1
  49   27   47 1
  50   27   48 1
  51   28   49 1
  52   28   50 1
  53   28   51 1
  54   29   30 1
  55   29   52 1
  56   29   53 1
  57   30   54 1
  58   30   55 1
  59   30   56 1

#	End of record

