#	Name: ASD01420110
#	Creating user name:	WinNT
#	Creation time:	15. 06. 2019 19:20

#	Modifying user name:	WinNT
#	Modification time:	15. 06. 2019 19:20

#	Program:	/corina/corina34_cracker 3.40 0067  02.08.2006

@<TRIPOS>MOLECULE
ASD01420110
  52   54    0    0    0
SMALL
NO_CHARGES


@<TRIPOS>ATOM
   1 C1            -0.0178     1.4621     0.0101 C.3     
   2 N2             0.0021    -0.0041     0.0020 N.am    
   3 C3             1.4109    -0.4106    -0.0136 C.3     
   4 C4             2.2496     0.8424    -0.0149 C.ar    
   5 C5             3.6224     1.0209    -0.0275 C.ar    
   6 C6             4.1554     2.2954    -0.0257 C.ar    
   7 C7             3.3169     3.3945    -0.0117 C.ar    
   8 C8             1.9469     3.2171     0.0003 C.ar    
   9 C9             1.4122     1.9401    -0.0010 C.ar    
  10 C10           -1.0694    -0.8216     0.0083 C.2     
  11 O11           -0.9142    -2.0267     0.0007 O.2     
  12 O12           -2.3118    -0.3030     0.0228 O.3     
  13 N13            7.9533     4.0722     0.6848 N.3     
  14 C14            7.5056     4.0161    -0.7126 C.3     
  15 C15            5.9917     3.7962    -0.7562 C.3     
  16 C16            5.6501     2.4875    -0.0383 C.3     
  17 C17            6.1698     2.5531     1.4005 C.3     
  18 C18            7.6785     2.8091     1.3816 C.3     
  19 C19            9.3781     4.4199     0.7676 C.3     
  20 O20            6.2664     1.3936    -0.7206 O.3     
  21 C21           -3.4185    -1.2429     0.0288 C.3     
  22 C22           -3.3283    -2.1291     1.2728 C.3     
  23 C23           -4.7409    -0.4736     0.0454 C.3     
  24 C24           -3.3524    -2.1165    -1.2255 C.3     
  25 H25           -0.5370     1.8294    -0.8752 H       
  26 H26           -0.5199     1.8199     0.9090 H       
  27 H27            1.6341    -1.0037     0.8732 H       
  28 H28            1.6171    -0.9941    -0.9109 H       
  29 H29            4.2777     0.1625    -0.0383 H       
  30 H30            3.7326     4.3913    -0.0100 H       
  31 H31            1.2921     4.0758     0.0116 H       
  32 H32            7.7508     4.9542    -1.2105 H       
  33 H33            8.0069     3.1930    -1.2218 H       
  34 H34            5.4890     4.6258    -0.2592 H       
  35 H35            5.6620     3.7389    -1.7936 H       
  36 H36            5.6699     3.3632     1.9314 H       
  37 H37            5.9673     1.6078     1.9040 H       
  38 H38            8.1791     1.9917     0.8625 H       
  39 H39            8.0493     2.8706     2.4047 H       
  40 H40            9.5414     5.3951     0.3089 H       
  41 H41            9.6835     4.4546     1.8134 H       
  42 H42            9.9667     3.6680     0.2419 H       
  43 H43            6.0934     0.5314    -0.3183 H       
  44 H44           -3.3754    -1.5067     2.1664 H       
  45 H45           -4.1590    -2.8347     1.2773 H       
  46 H46           -2.3861    -2.6771     1.2610 H       
  47 H47           -4.8052     0.1577    -0.8408 H       
  48 H48           -5.5717    -1.1792     0.0499 H       
  49 H49           -4.7880     0.1487     0.9391 H       
  50 H50           -2.4103    -2.6646    -1.2374 H       
  51 H51           -4.1832    -2.8221    -1.2211 H       
  52 H52           -3.4166    -1.4852    -2.1118 H       
@<TRIPOS>BOND
   1    1    2 1
   2    1    9 1
   3    1   25 1
   4    1   26 1
   5    2    3 1
   6    2   10 am
   7    3    4 1
   8    3   27 1
   9    3   28 1
  10    4    5 ar
  11    4    9 ar
  12    5    6 ar
  13    5   29 1
  14    6    7 ar
  15    6   16 1
  16    7    8 ar
  17    7   30 1
  18    8    9 ar
  19    8   31 1
  20   10   11 2
  21   10   12 1
  22   12   21 1
  23   13   14 1
  24   13   18 1
  25   13   19 1
  26   14   15 1
  27   14   32 1
  28   14   33 1
  29   15   16 1
  30   15   34 1
  31   15   35 1
  32   16   17 1
  33   16   20 1
  34   17   18 1
  35   17   36 1
  36   17   37 1
  37   18   38 1
  38   18   39 1
  39   19   40 1
  40   19   41 1
  41   19   42 1
  42   20   43 1
  43   21   22 1
  44   21   24 1
  45   21   23 1
  46   22   44 1
  47   22   45 1
  48   22   46 1
  49   23   47 1
  50   23   48 1
  51   23   49 1
  52   24   50 1
  53   24   51 1
  54   24   52 1

#	End of record

