#	Name: ASD03490019
#	Creating user name:	WinNT
#	Creation time:	15. 06. 2019 20:42

#	Modifying user name:	WinNT
#	Modification time:	15. 06. 2019 20:42

#	Program:	/corina/corina34_cracker 3.40 0067  02.08.2006

@<TRIPOS>MOLECULE
ASD03490019
  46   48    0    0    0
SMALL
NO_CHARGES


@<TRIPOS>ATOM
   1 C1            -0.2534     2.4061    -1.5835 C.ar    
   2 C2            -0.3737     1.0286    -1.6181 C.ar    
   3 C3             0.7426     0.2273    -1.4616 C.ar    
   4 C4             1.9858     0.8003    -1.2692 C.ar    
   5 C5             2.1117     2.1899    -1.2337 C.ar    
   6 C6             0.9827     2.9901    -1.3925 C.ar    
   7 F7             3.0760     0.0173    -1.1155 F       
   8 C8             3.4426     2.8122    -1.0271 C.ar    
   9 C9             3.8839     3.8197    -1.8826 C.ar    
  10 C10            5.1229     4.3950    -1.6857 C.ar    
  11 C11            5.9263     3.9729    -0.6419 C.ar    
  12 C12            5.4933     2.9732     0.2104 C.ar    
  13 C13            4.2535     2.3952     0.0267 C.ar    
  14 C14            7.2786     4.6042    -0.4326 C.3     
  15 C15            7.1398     5.8103     0.4985 C.3     
  16 C16            8.5128     6.4513     0.7109 C.3     
  17 C17            8.3760     7.6392     1.6281 C.2     
  18 N18            9.4633     8.3638     1.9589 N.am    
  19 C19            9.3232     9.5243     2.7314 C.ar    
  20 C20            8.3617     9.5811     3.7314 C.ar    
  21 C21            8.2245    10.7250     4.4927 C.ar    
  22 C22            9.0472    11.8172     4.2586 C.ar    
  23 C23           10.0078    11.7612     3.2593 C.ar    
  24 C24           10.1498    10.6158     2.5011 C.ar    
  25 O25            8.9116    12.9432     5.0085 O.3     
  26 O26            7.2876     7.9433     2.0685 O.2     
  27 H27           -1.1283     3.0264    -1.7108 H       
  28 H28           -1.3432     0.5770    -1.7675 H       
  29 H29            0.6428    -0.8477    -1.4895 H       
  30 H30            1.0743     4.0659    -1.3662 H       
  31 H31            3.2577     4.1495    -2.6984 H       
  32 H32            5.4659     5.1759    -2.3482 H       
  33 H33            6.1248     2.6472     1.0236 H       
  34 H34            3.9163     1.6149     0.6929 H       
  35 H35            7.9544     3.8755     0.0150 H       
  36 H36            7.6797     4.9303    -1.3922 H       
  37 H37            6.4640     6.5390     0.0509 H       
  38 H38            6.7387     5.4842     1.4581 H       
  39 H39            9.1886     5.7226     1.1585 H       
  40 H40            8.9139     6.7774    -0.2487 H       
  41 H41           10.3427     8.0818     1.6622 H       
  42 H42            7.7209     8.7311     3.9135 H       
  43 H43            7.4763    10.7695     5.2703 H       
  44 H44           10.6475    12.6120     3.0771 H       
  45 H45           10.8980    10.5722     1.7235 H       
  46 H46            9.4578    12.9524     5.8065 H       
@<TRIPOS>BOND
   1    1    2 ar
   2    1    6 ar
   3    1   27 1
   4    2    3 ar
   5    2   28 1
   6    3    4 ar
   7    3   29 1
   8    4    5 ar
   9    4    7 1
  10    5    6 ar
  11    5    8 1
  12    6   30 1
  13    8    9 ar
  14    8   13 ar
  15    9   10 ar
  16    9   31 1
  17   10   11 ar
  18   10   32 1
  19   11   12 ar
  20   11   14 1
  21   12   13 ar
  22   12   33 1
  23   13   34 1
  24   14   15 1
  25   14   35 1
  26   14   36 1
  27   15   16 1
  28   15   37 1
  29   15   38 1
  30   16   17 1
  31   16   39 1
  32   16   40 1
  33   17   18 am
  34   17   26 2
  35   18   19 1
  36   18   41 1
  37   19   20 ar
  38   19   24 ar
  39   20   21 ar
  40   20   42 1
  41   21   22 ar
  42   21   43 1
  43   22   23 ar
  44   22   25 1
  45   23   24 ar
  46   23   44 1
  47   24   45 1
  48   25   46 1

#	End of record

