#	Name: ASD01200144
#	Creating user name:	WinNT
#	Creation time:	15. 06. 2019 19:08

#	Modifying user name:	WinNT
#	Modification time:	15. 06. 2019 19:08

#	Program:	/corina/corina34_cracker 3.40 0067  02.08.2006

@<TRIPOS>MOLECULE
ASD01200144
  53   57    0    0    0
SMALL
NO_CHARGES


@<TRIPOS>ATOM
   1 C1             0.0924     2.0382     0.0023 C.ar    
   2 C2            -0.0984     0.6682     0.0213 C.ar    
   3 C3             0.9912    -0.1870     0.0112 C.ar    
   4 C4             2.2668     0.3263    -0.0178 C.ar    
   5 C5             2.4709     1.7083    -0.0371 C.ar    
   6 C6             1.3679     2.5636    -0.0268 C.ar    
   7 C7             3.6355    -0.3072    -0.0355 C.3     
   8 N8             4.5995     0.7986    -0.0655 N.am    
   9 C9             3.9243     1.9609    -0.0664 C.2     
  10 O10            4.4377     3.0625    -0.0879 O.2     
  11 S11            3.8792    -1.3063     1.4588 S.3     
  12 C12            6.0576     0.6588    -0.0904 C.3     
  13 C13            6.5250     0.5238    -1.5167 C.ar    
  14 C14            3.0371    -2.8607     1.0523 C.3     
  15 C15            3.1522    -3.8132     2.2145 C.2     
  16 O16            3.7439    -3.4766     3.2181 O.2     
  17 N17            2.5974    -5.0391     2.1385 N.am    
  18 C18            2.7868    -5.9552     3.1721 C.ar    
  19 N19            3.4173    -5.5798     4.2735 N.ar    
  20 C20            3.6170    -6.4149     5.2753 C.ar    
  21 C21            3.1716    -7.7201     5.2086 C.ar    
  22 C22            2.5054    -8.1536     4.0702 C.ar    
  23 C23            2.3065    -7.2532     3.0387 C.ar    
  24 C24            6.9996     1.6091    -2.1867 C.ar    
  25 C25            7.4363     1.5036    -3.5061 C.ar    
  26 C26            7.4008     0.3121    -4.1627 C.ar    
  27 C27            6.9176    -0.8311    -3.5033 C.ar    
  28 C28            6.4786    -0.7249    -2.1601 C.ar    
  29 C29            6.8658    -2.0786    -4.1485 C.ar    
  30 C30            6.3917    -3.1641    -3.4784 C.ar    
  31 C31            5.9549    -3.0585    -2.1590 C.ar    
  32 C32            5.9953    -1.8680    -1.5007 C.ar    
  33 H33           -0.7613     2.6998     0.0058 H       
  34 H34           -1.0997     0.2642     0.0444 H       
  35 H35            0.8392    -1.2561     0.0264 H       
  36 H36            1.5125     3.6338    -0.0419 H       
  37 H37            3.7495    -0.9278    -0.9243 H       
  38 H38            6.5148     1.5399     0.3598 H       
  39 H39            6.3473    -0.2286     0.4724 H       
  40 H40            1.9850    -2.6615     0.8486 H       
  41 H41            3.5000    -3.3050     0.1712 H       
  42 H42            2.0664    -5.2840     1.3646 H       
  43 H43            4.1360    -6.0732     6.1586 H       
  44 H44            3.3398    -8.3968     6.0333 H       
  45 H45            2.1470    -9.1695     3.9933 H       
  46 H46            1.7919    -7.5566     2.1390 H       
  47 H47            7.0381     2.5667    -1.6887 H       
  48 H48            7.8080     2.3805    -4.0151 H       
  49 H49            7.7418     0.2454    -5.1853 H       
  50 H50            7.2002    -2.1753    -5.1709 H       
  51 H51            6.3529    -4.1216    -3.9765 H       
  52 H52            5.5824    -3.9353    -1.6503 H       
  53 H53            5.6538    -1.8013    -0.4783 H       
@<TRIPOS>BOND
   1    1    2 ar
   2    1    6 ar
   3    1   33 1
   4    2    3 ar
   5    2   34 1
   6    3    4 ar
   7    3   35 1
   8    4    5 ar
   9    4    7 1
  10    5    6 ar
  11    5    9 1
  12    6   36 1
  13    7    8 1
  14    7   11 1
  15    7   37 1
  16    8    9 am
  17    8   12 1
  18    9   10 2
  19   11   14 1
  20   12   13 1
  21   12   38 1
  22   12   39 1
  23   13   24 ar
  24   13   28 ar
  25   14   15 1
  26   14   40 1
  27   14   41 1
  28   15   16 2
  29   15   17 am
  30   17   18 1
  31   17   42 1
  32   18   19 ar
  33   18   23 ar
  34   19   20 ar
  35   20   21 ar
  36   20   43 1
  37   21   22 ar
  38   21   44 1
  39   22   23 ar
  40   22   45 1
  41   23   46 1
  42   24   25 ar
  43   24   47 1
  44   25   26 ar
  45   25   48 1
  46   26   27 ar
  47   26   49 1
  48   27   28 ar
  49   27   29 ar
  50   28   32 ar
  51   29   30 ar
  52   29   50 1
  53   30   31 ar
  54   30   51 1
  55   31   32 ar
  56   31   52 1
  57   32   53 1

#	End of record

