#	Name: ASD02039226
#	Creating user name:	WinNT
#	Creation time:	15. 06. 2019 20:17

#	Modifying user name:	WinNT
#	Modification time:	15. 06. 2019 20:17

#	Program:	/corina/corina34_cracker 3.40 0067  02.08.2006

@<TRIPOS>MOLECULE
ASD02039226
  43   47    0    0    0
SMALL
NO_CHARGES


@<TRIPOS>ATOM
   1 N1             0.0019     1.2626     0.3692 N.2     
   2 C2             0.0062    -0.0135     0.0889 C.2     
   3 N3             1.2922    -0.3753    -0.1077 N.2     
   4 C4             1.9959     0.7161     0.0676 C.2     
   5 O5             1.1349     1.6955     0.3609 O.3     
   6 C6             3.4936     0.8431    -0.0405 C.3     
   7 N7            -1.1049    -0.8433     0.0081 N.pl3   
   8 C8            -2.3915    -0.3043     0.1284 C.ar    
   9 C9            -2.6366     1.0038    -0.2692 C.ar    
  10 C10           -3.9073     1.5349    -0.1498 C.ar    
  11 C11           -4.9379     0.7600     0.3676 C.ar    
  12 C12           -4.6923    -0.5452     0.7641 C.ar    
  13 C13           -3.4238    -1.0788     0.6399 C.ar    
  14 F14           -4.1468     2.8072    -0.5358 F       
  15 C15            4.0883     2.2520     0.0055 C.3     
  16 C16            4.2544     1.3121     1.2013 C.3     
  17 C17            3.4486     1.6119     2.4390 C.ar    
  18 C18            3.6907     0.9128     3.5872 C.ar    
  19 C19            2.9491     1.1854     4.7343 C.ar    
  20 C20            1.9554     2.1823     4.6949 C.ar    
  21 C21            1.7263     2.8847     3.5064 C.ar    
  22 C22            2.4722     2.6000     2.3997 C.ar    
  23 N23            2.9480     0.6773     6.0070 N.pl3   
  24 N24            1.9732     1.3376     6.7621 N.2     
  25 C25            1.3677     2.2285     6.0298 C.2     
  26 O26           -6.1884     1.2827     0.4856 O.3     
  27 C27           -7.1997     0.4297     1.0256 C.3     
  28 F28           -7.3397    -0.7002     0.2127 F       
  29 F29           -6.8348     0.0331     2.3167 F       
  30 H30            3.9822     0.1113    -0.6839 H       
  31 H31           -0.9894    -1.7962    -0.1317 H       
  32 H32           -1.8349     1.6056    -0.6710 H       
  33 H33           -5.4940    -1.1469     1.1663 H       
  34 H34           -3.2335    -2.0961     0.9488 H       
  35 H35            4.9684     2.4470    -0.6073 H       
  36 H36            3.3963     3.0871     0.1140 H       
  37 H37            5.2436     0.8889     1.3752 H       
  38 H38            4.4551     0.1501     3.6055 H       
  39 H39            0.9663     3.6511     3.4665 H       
  40 H40            2.2963     3.1418     1.4822 H       
  41 H41            3.5299    -0.0274     6.3321 H       
  42 H42            0.5727     2.8842     6.3529 H       
  43 H43           -8.1464     0.9685     1.0651 H       
@<TRIPOS>BOND
   1    1    2 2
   2    1    5 1
   3    2    3 1
   4    2    7 1
   5    3    4 2
   6    4    5 1
   7    4    6 1
   8    6   15 1
   9    6   16 1
  10    6   30 1
  11    7    8 1
  12    7   31 1
  13    8    9 ar
  14    8   13 ar
  15    9   10 ar
  16    9   32 1
  17   10   11 ar
  18   10   14 1
  19   11   12 ar
  20   11   26 1
  21   12   13 ar
  22   12   33 1
  23   13   34 1
  24   15   16 1
  25   15   35 1
  26   15   36 1
  27   16   17 1
  28   16   37 1
  29   17   18 ar
  30   17   22 ar
  31   18   19 ar
  32   18   38 1
  33   19   20 ar
  34   19   23 1
  35   20   21 ar
  36   20   25 1
  37   21   22 ar
  38   21   39 1
  39   22   40 1
  40   23   24 1
  41   23   41 1
  42   24   25 2
  43   25   42 1
  44   26   27 1
  45   27   28 1
  46   27   29 1
  47   27   43 1

#	End of record

