#	Name: ASD01910101
#	Creating user name:	WinNT
#	Creation time:	15. 06. 2019 19:55

#	Modifying user name:	WinNT
#	Modification time:	15. 06. 2019 19:55

#	Program:	/corina/corina34_cracker 3.40 0067  02.08.2006

@<TRIPOS>MOLECULE
ASD01910101
  42   45    0    0    0
SMALL
NO_CHARGES


@<TRIPOS>ATOM
   1 C1             0.1114     0.4854     0.4010 C.ar    
   2 C2             0.3455    -0.8756     0.4498 C.ar    
   3 C3             1.6399    -1.3687     0.3879 C.ar    
   4 C4             2.7050    -0.4900     0.2759 C.ar    
   5 C5             2.4661     0.8985     0.2256 C.ar    
   6 C6             1.1675     1.3768     0.2890 C.ar    
   7 C7             4.1716    -0.6514     0.1868 C.2     
   8 N8             4.7320     0.5678     0.0919 N.am    
   9 C9             3.7956     1.5335     0.1077 C.2     
  10 C10            6.1727     0.8118    -0.0140 C.3     
  11 C11            6.5997     0.6821    -1.4534 C.ar    
  12 C12            6.4506     1.7553    -2.3219 C.ar    
  13 C13            6.8457     1.6325    -3.6479 C.ar    
  14 C14            7.3854     0.4443    -4.0990 C.ar    
  15 C15            7.5328    -0.6238    -3.2313 C.ar    
  16 C16            7.1450    -0.5025    -1.9086 C.ar    
  17 N17            5.9031     2.9579    -1.8624 N.am    
  18 C18            5.3568     3.8269    -2.7358 C.2     
  19 C19            4.8844     5.1468    -2.2674 C.ar    
  20 C20            4.3151     6.0585    -3.1645 C.ar    
  21 C21            3.8883     7.2806    -2.6751 C.ar    
  22 C22            4.0363     7.5597    -1.3286 C.ar    
  23 N23            4.5772     6.6810    -0.5061 N.ar    
  24 C24            4.9931     5.5032    -0.9223 C.ar    
  25 O25            5.2526     3.5251    -3.9088 O.2     
  26 O26            4.0073     2.7273     0.0373 O.2     
  27 O27            4.7704    -1.7079     0.1981 O.2     
  28 Cl28           8.2112    -2.1165    -3.8018 Cl      
  29 H29           -0.9016     0.8572     0.4460 H       
  30 H30           -0.4854    -1.5599     0.5372 H       
  31 H31            1.8171    -2.4334     0.4272 H       
  32 H32            0.9785     2.4394     0.2505 H       
  33 H33            6.3981     1.8168     0.3427 H       
  34 H34            6.7102     0.0822     0.5916 H       
  35 H35            6.7305     2.4656    -4.3256 H       
  36 H36            7.6924     0.3482    -5.1300 H       
  37 H37            7.2611    -1.3375    -1.2336 H       
  38 H38            5.9167     3.1663    -0.9151 H       
  39 H39            4.2120     5.8145    -4.2115 H       
  40 H40            3.4446     8.0089    -3.3378 H       
  41 H41            3.7041     8.5127    -0.9440 H       
  42 H42            5.4307     4.8105    -0.2187 H       
@<TRIPOS>BOND
   1    1    2 ar
   2    1    6 ar
   3    1   29 1
   4    2    3 ar
   5    2   30 1
   6    3    4 ar
   7    3   31 1
   8    4    5 ar
   9    4    7 1
  10    5    6 ar
  11    5    9 1
  12    6   32 1
  13    7    8 am
  14    7   27 2
  15    8    9 am
  16    8   10 1
  17    9   26 2
  18   10   11 1
  19   10   33 1
  20   10   34 1
  21   11   12 ar
  22   11   16 ar
  23   12   13 ar
  24   12   17 1
  25   13   14 ar
  26   13   35 1
  27   14   15 ar
  28   14   36 1
  29   15   16 ar
  30   15   28 1
  31   16   37 1
  32   17   18 am
  33   17   38 1
  34   18   19 1
  35   18   25 2
  36   19   20 ar
  37   19   24 ar
  38   20   21 ar
  39   20   39 1
  40   21   22 ar
  41   21   40 1
  42   22   23 ar
  43   22   41 1
  44   23   24 ar
  45   24   42 1

#	End of record

