#	Name: ASD08070191
#	Creating user name:	WinNT
#	Creation time:	15. 06. 2019 21:14

#	Modifying user name:	WinNT
#	Modification time:	15. 06. 2019 21:14

#	Program:	/corina/corina34_cracker 3.40 0067  02.08.2006

@<TRIPOS>MOLECULE
ASD08070191
  44   45    0    0    0
SMALL
NO_CHARGES


@<TRIPOS>ATOM
   1 C1            -0.0167     1.3794     0.0096 C.ar    
   2 C2             0.0021    -0.0041     0.0020 C.ar    
   3 C3            -1.1814    -0.7130     0.0095 C.ar    
   4 C4            -2.3994    -0.0316     0.0253 C.ar    
   5 C5            -2.4112     1.3640     0.0333 C.ar    
   6 C6            -1.2206     2.0609     0.0306 C.ar    
   7 C7            -3.6715    -0.7850     0.0329 C.2     
   8 N8            -4.2625    -1.1213    -1.1308 N.am    
   9 C9            -3.7217     2.1080     0.0504 C.3     
  10 O10           -4.1844    -1.1010     1.0886 O.2     
  11 C11           -5.5230    -1.8678    -1.1232 C.3     
  12 C12           -1.1591    -2.2199     0.0002 C.3     
  13 C13            1.2800     2.1473     0.0014 C.3     
  14 C14           -6.2370    -1.5997    -2.3628 C.3     
  15 C15           -7.6122    -2.2963    -2.4117 C.3     
  16 C16           -7.4045    -3.7384    -2.7881 C.3     
  17 C17           -7.3011    -4.6597    -1.5576 C.3     
  18 C18           -6.4542    -4.0500    -0.4241 C.3     
  19 C19           -5.2145    -3.3673    -0.9351 C.3     
  20 H20            0.9452    -0.5301    -0.0102 H       
  21 H21           -1.2284     3.1409     0.0368 H       
  22 H22           -3.8532    -0.8691    -1.9733 H       
  23 H23           -4.0276     2.2815     1.0821 H       
  24 H24           -3.6032     3.0643    -0.4592 H       
  25 H25           -4.4821     1.5164    -0.4594 H       
  26 H26           -6.1303    -1.5259    -0.2851 H       
  27 H27           -1.1435    -2.5893     1.0256 H       
  28 H28           -2.0486    -2.5933    -0.5071 H       
  29 H29           -0.2689    -2.5668    -0.5246 H       
  30 H30            1.5828     2.3379    -1.0282 H       
  31 H31            1.1441     3.0954     0.5216 H       
  32 H32            2.0509     1.5639     0.5047 H       
  33 H33           -6.3826    -0.5239    -2.4608 H       
  34 H34           -5.6338    -1.9501    -3.2004 H       
  35 H35           -8.0871    -2.2383    -1.4323 H       
  36 H36           -8.2424    -1.8106    -3.1567 H       
  37 H37           -8.2414    -4.0660    -3.4047 H       
  38 H38           -6.4864    -3.8223    -3.3696 H       
  39 H39           -8.3047    -4.8559    -1.1800 H       
  40 H40           -6.8518    -5.6048    -1.8628 H       
  41 H41           -7.0599    -3.3228     0.1166 H       
  42 H42           -6.1618    -4.8436     0.2636 H       
  43 H43           -4.9233    -3.8039    -1.8904 H       
  44 H44           -4.4066    -3.4871    -0.2132 H       
@<TRIPOS>BOND
   1    1    2 ar
   2    1   13 1
   3    1    6 ar
   4    2    3 ar
   5    2   20 1
   6    3    4 ar
   7    3   12 1
   8    4    5 ar
   9    4    7 1
  10    5    6 ar
  11    5    9 1
  12    6   21 1
  13    7    8 am
  14    7   10 2
  15    8   11 1
  16    8   22 1
  17    9   23 1
  18    9   24 1
  19    9   25 1
  20   11   14 1
  21   11   19 1
  22   11   26 1
  23   12   27 1
  24   12   28 1
  25   12   29 1
  26   13   30 1
  27   13   31 1
  28   13   32 1
  29   14   15 1
  30   14   33 1
  31   14   34 1
  32   15   16 1
  33   15   35 1
  34   15   36 1
  35   16   17 1
  36   16   37 1
  37   16   38 1
  38   17   18 1
  39   17   39 1
  40   17   40 1
  41   18   19 1
  42   18   41 1
  43   18   42 1
  44   19   43 1
  45   19   44 1

#	End of record

