#	Name: ASD01120205
#	Creating user name:	WinNT
#	Creation time:	15. 06. 2019 18:59

#	Modifying user name:	WinNT
#	Modification time:	15. 06. 2019 18:59

#	Program:	/corina/corina34_cracker 3.40 0067  02.08.2006

@<TRIPOS>MOLECULE
ASD01120205
  32   34    0    0    0
SMALL
NO_CHARGES


@<TRIPOS>ATOM
   1 C1            -0.0415     2.6878     1.2870 C.ar    
   2 C2             0.2504     1.3321     1.3136 C.ar    
   3 C3            -0.7462     0.3978     1.1133 C.ar    
   4 C4            -2.0472     0.8140     0.8845 C.ar    
   5 C5            -2.3475     2.1843     0.8572 C.ar    
   6 C6            -1.3328     3.1187     1.0661 C.ar    
   7 O7            -3.2122     0.1632     0.6597 O.3     
   8 C8            -4.1819     1.0811     0.5016 C.2     
   9 N9            -3.6836     2.2857     0.6162 N.2     
  10 Cl10           1.2244     3.8485     1.5403 Cl      
  11 N11           -5.5056     0.7954     0.2551 N.am    
  12 S12           -6.6211     2.0183     0.2043 S.o2    
  13 O13           -7.8683     1.4111    -0.1041 O.2     
  14 O14           -6.4066     2.8057     1.3675 O.2     
  15 C15           -6.2118     3.0407    -1.1712 C.ar    
  16 C16           -5.7200     4.3167    -0.9625 C.ar    
  17 C17           -5.3984     5.1189    -2.0431 C.ar    
  18 C18           -5.5687     4.6449    -3.3300 C.ar    
  19 C19           -6.0603     3.3695    -3.5380 C.ar    
  20 C20           -6.3768     2.5658    -2.4589 C.ar    
  21 Cl21          -5.5069     4.9115     0.6544 Cl      
  22 C22           -6.9122     1.1756    -2.6863 C.3     
  23 H23            1.2642     1.0051     1.4918 H       
  24 H24           -0.5115    -0.6561     1.1346 H       
  25 H25           -1.5561     4.1751     1.0469 H       
  26 H26           -5.7851    -0.1223     0.1112 H       
  27 H27           -5.0146     6.1153    -1.8809 H       
  28 H28           -5.3180     5.2711    -4.1736 H       
  29 H29           -6.1936     2.9997    -4.5439 H       
  30 H30           -6.0954     0.4567    -2.6224 H       
  31 H31           -7.6593     0.9452    -1.9268 H       
  32 H32           -7.3693     1.1194    -3.6743 H       
@<TRIPOS>BOND
   1    1    2 ar
   2    1   10 1
   3    1    6 ar
   4    2    3 ar
   5    2   23 1
   6    3    4 ar
   7    3   24 1
   8    4    5 ar
   9    4    7 1
  10    5    6 ar
  11    5    9 1
  12    6   25 1
  13    7    8 1
  14    8    9 2
  15    8   11 1
  16   11   12 am
  17   11   26 1
  18   12   13 2
  19   12   14 2
  20   12   15 1
  21   15   16 ar
  22   15   20 ar
  23   16   17 ar
  24   16   21 1
  25   17   18 ar
  26   17   27 1
  27   18   19 ar
  28   18   28 1
  29   19   20 ar
  30   19   29 1
  31   20   22 1
  32   22   30 1
  33   22   31 1
  34   22   32 1

#	End of record

