#	Name: ASD01001180
#	Creating user name:	WinNT
#	Creation time:	15. 06. 2019 18:55

#	Modifying user name:	WinNT
#	Modification time:	15. 06. 2019 18:55

#	Program:	/corina/corina34_cracker 3.40 0067  02.08.2006

@<TRIPOS>MOLECULE
ASD01001180
  53   56    0    0    0
SMALL
NO_CHARGES


@<TRIPOS>ATOM
   1 C1            -0.0167     1.3784     0.0096 C.ar    
   2 C2             1.2785     2.1488     0.0014 C.3     
   3 C3             1.8662     2.1916     1.4148 C.3     
   4 N4             2.2543     1.4742    -0.8670 N.pl3   
   5 C5             0.8467     2.7692     2.3928 C.3     
   6 C6             3.1377     3.0366     1.4042 C.3     
   7 C7             3.6092     1.8032    -0.7480 C.ar    
   8 C8             0.5872     4.2402     2.0543 C.3     
   9 C9             4.0726     2.5462     0.3265 C.ar    
  10 O10            2.8130     4.4036     1.1400 O.3     
  11 C11            4.4972     1.3726    -1.7281 C.ar    
  12 C12            1.9198     4.9951     2.0839 C.3     
  13 C13            5.4194     2.8508     0.4198 C.ar    
  14 C14            5.8390     1.6818    -1.6289 C.ar    
  15 C15            6.2997     2.4202    -0.5545 C.ar    
  16 C16            7.7648     2.7560    -0.4457 C.3     
  17 C17            8.3282     2.1672     0.8492 C.3     
  18 C18            8.5135     2.1658    -1.6424 C.3     
  19 C19            7.9401     4.2758    -0.4335 C.3     
  20 C20            0.0021    -0.0041     0.0020 C.ar    
  21 C21           -1.1843    -0.7149     0.0100 C.ar    
  22 C22           -2.3920    -0.0456     0.0256 C.ar    
  23 C23           -2.4144     1.3435     0.0332 C.ar    
  24 C24           -1.2211     2.0542     0.0305 C.ar    
  25 N25           -3.6342     2.0237     0.0486 N.pl3   
  26 H26            1.1028     3.1632    -0.3567 H       
  27 H27            2.1277     1.1800     1.7252 H       
  28 H28            1.9634     0.8109    -1.5123 H       
  29 H29           -0.0857     2.2095     2.3178 H       
  30 H30            1.2346     2.6933     3.4086 H       
  31 H31            3.6307     2.9627     2.3735 H       
  32 H32            0.1473     4.3142     1.0598 H       
  33 H33           -0.0927     4.6700     2.7899 H       
  34 H34            4.1368     0.7957    -2.5670 H       
  35 H35            1.7526     6.0400     1.8222 H       
  36 H36            2.3517     4.9331     3.0828 H       
  37 H37            5.7837     3.4276     1.2570 H       
  38 H38            6.5284     1.3469    -2.3898 H       
  39 H39            8.2033     1.0844     0.8405 H       
  40 H40            9.3879     2.4100     0.9279 H       
  41 H41            7.7948     2.5876     1.7018 H       
  42 H42            8.1121     2.5853    -2.5649 H       
  43 H43            9.5732     2.4087    -1.5637 H       
  44 H44            8.3886     1.0830    -1.6511 H       
  45 H45            7.4067     4.6963     0.4191 H       
  46 H46            8.9998     4.5187    -0.3548 H       
  47 H47            7.5387     4.6953    -1.3560 H       
  48 H48            0.9453    -0.5300    -0.0105 H       
  49 H49           -1.1661    -1.7948     0.0037 H       
  50 H50           -3.3180    -0.6013     0.0314 H       
  51 H51           -1.2351     3.1341     0.0365 H       
  52 H52           -4.4669     1.5262     0.0538 H       
  53 H53           -3.6487     2.9936     0.0539 H       
@<TRIPOS>BOND
   1    1   20 ar
   2    1    2 1
   3    1   24 ar
   4    2    3 1
   5    2    4 1
   6    2   26 1
   7    3    5 1
   8    3    6 1
   9    3   27 1
  10    4    7 1
  11    4   28 1
  12    5    8 1
  13    5   29 1
  14    5   30 1
  15    6    9 1
  16    6   10 1
  17    6   31 1
  18    7    9 ar
  19    7   11 ar
  20    8   12 1
  21    8   32 1
  22    8   33 1
  23    9   13 ar
  24   10   12 1
  25   11   14 ar
  26   11   34 1
  27   12   35 1
  28   12   36 1
  29   13   15 ar
  30   13   37 1
  31   14   15 ar
  32   14   38 1
  33   15   16 1
  34   16   17 1
  35   16   18 1
  36   16   19 1
  37   17   39 1
  38   17   40 1
  39   17   41 1
  40   18   42 1
  41   18   43 1
  42   18   44 1
  43   19   45 1
  44   19   46 1
  45   19   47 1
  46   20   21 ar
  47   20   48 1
  48   21   22 ar
  49   21   49 1
  50   22   23 ar
  51   22   50 1
  52   23   24 ar
  53   23   25 1
  54   24   51 1
  55   25   52 1
  56   25   53 1

#	End of record

