#	Name: ASD01940259
#	Creating user name:	WinNT
#	Creation time:	15. 06. 2019 20:12

#	Modifying user name:	WinNT
#	Modification time:	15. 06. 2019 20:12

#	Program:	/corina/corina34_cracker 3.40 0067  02.08.2006

@<TRIPOS>MOLECULE
ASD01940259
  66   68    0    0    0
SMALL
NO_CHARGES


@<TRIPOS>ATOM
   1 C1            -1.4874     0.9827     1.2634 C.ar    
   2 C2            -2.0408     1.7265     2.2939 C.ar    
   3 C3            -2.9197     2.7590     2.0118 C.ar    
   4 C4            -3.2496     3.0528     0.6991 C.ar    
   5 C5            -2.6986     2.3113    -0.3390 C.ar    
   6 C6            -1.8105     1.2769    -0.0570 C.ar    
   7 N7            -1.2510     0.5247    -1.1028 N.am    
   8 S8             0.3880     0.3000    -1.1763 S.o2    
   9 O9             0.7684     0.8953    -2.4092 O.2     
  10 O10            0.8672     0.8080     0.0612 O.2     
  11 F11           -3.4570     3.4809     3.0194 F       
  12 F12           -4.1077     4.0604     0.4278 F       
  13 N13           -3.0325     2.6074    -1.6678 N.pl3   
  14 C14           -4.3116     2.3127    -2.1495 C.ar    
  15 C15           -4.9489     3.1919    -3.0197 C.ar    
  16 C16           -4.9466     1.1395    -1.7654 C.ar    
  17 C17           -6.2105     0.8508    -2.2436 C.ar    
  18 C18           -6.8436     1.7280    -3.1041 C.ar    
  19 C19           -6.2133     2.8962    -3.4938 C.ar    
  20 F20           -4.3332     4.3327    -3.4001 F       
  21 C21           -8.2216     1.4082    -3.6236 C.3     
  22 C22            0.5952    -1.5007    -1.2483 C.3     
  23 C23           -0.0540    -2.1519    -0.0255 C.3     
  24 C24           -0.0374    -2.0530    -2.5377 C.3     
  25 C25            2.0948    -1.8583    -1.3037 C.3     
  26 O26           -0.6242    -0.0310     1.5432 O.3     
  27 C27           -0.2751    -0.2258     2.9151 C.3     
  28 C28            2.1597    -3.0772    -2.2572 C.3     
  29 C29            1.0998    -2.7268    -3.3330 C.3     
  30 C30           -0.0217    -3.6737    -0.1805 C.3     
  31 C31           -0.7681    -4.3213     0.9875 C.3     
  32 C32           -0.7357    -5.8431     0.8325 C.3     
  33 O33            0.6122    -6.3046     0.9428 O.3     
  34 C34           -1.5863    -6.4858     1.9300 C.3     
  35 O35           -1.6513    -7.8973     1.7170 O.3     
  36 H36           -1.7863     1.5002     3.3188 H       
  37 H37           -1.8247     0.1369    -1.7821 H       
  38 H38           -2.3763     3.0168    -2.2531 H       
  39 H39           -4.4530     0.4527    -1.0937 H       
  40 H40           -6.7044    -0.0620    -1.9447 H       
  41 H41           -6.7109     3.5795    -4.1659 H       
  42 H42           -8.9698     1.8188    -2.9457 H       
  43 H43           -8.3478     1.8476    -4.6132 H       
  44 H44           -8.3438     0.3270    -3.6879 H       
  45 H45            0.4943    -1.8664     0.8723 H       
  46 H46           -1.0880    -1.8171     0.0585 H       
  47 H47           -0.8063    -2.7855    -2.2923 H       
  48 H48           -0.4689    -1.2390    -3.1202 H       
  49 H49            2.6707    -1.0262    -1.7087 H       
  50 H50            2.4593    -2.1293    -0.3128 H       
  51 H51            0.3591    -1.1075     3.0070 H       
  52 H52            0.2632     0.6487     3.2807 H       
  53 H53           -1.1813    -0.3671     3.5041 H       
  54 H54            3.1499    -3.1659    -2.7040 H       
  55 H55            1.8881    -3.9931    -1.7323 H       
  56 H56            0.7391    -3.6315    -3.8223 H       
  57 H57            1.5147    -2.0350    -4.0660 H       
  58 H58           -0.5015    -3.9536    -1.1183 H       
  59 H59            1.0130    -4.0165    -0.1853 H       
  60 H60           -0.2882    -4.0414     1.9253 H       
  61 H61           -1.8028    -3.9785     0.9923 H       
  62 H62           -1.1349    -6.1174    -0.1440 H       
  63 H63            1.0317    -6.0950     1.7884 H       
  64 H64           -1.1365    -6.2854     2.9024 H       
  65 H65           -2.5923    -6.0673     1.9018 H       
  66 H66           -2.1759    -8.3709     2.3771 H       
@<TRIPOS>BOND
   1    1    2 ar
   2    1   26 1
   3    1    6 ar
   4    2    3 ar
   5    2   36 1
   6    3    4 ar
   7    3   11 1
   8    4    5 ar
   9    4   12 1
  10    5    6 ar
  11    5   13 1
  12    6    7 1
  13    7    8 am
  14    7   37 1
  15    8    9 2
  16    8   10 2
  17    8   22 1
  18   13   14 1
  19   13   38 1
  20   14   15 ar
  21   14   16 ar
  22   15   20 1
  23   15   19 ar
  24   16   17 ar
  25   16   39 1
  26   17   18 ar
  27   17   40 1
  28   18   19 ar
  29   18   21 1
  30   19   41 1
  31   21   42 1
  32   21   43 1
  33   21   44 1
  34   22   23 1
  35   22   24 1
  36   22   25 1
  37   23   30 1
  38   23   45 1
  39   23   46 1
  40   24   29 1
  41   24   47 1
  42   24   48 1
  43   25   28 1
  44   25   49 1
  45   25   50 1
  46   26   27 1
  47   27   51 1
  48   27   52 1
  49   27   53 1
  50   28   29 1
  51   28   54 1
  52   28   55 1
  53   29   56 1
  54   29   57 1
  55   30   31 1
  56   30   58 1
  57   30   59 1
  58   31   32 1
  59   31   60 1
  60   31   61 1
  61   32   33 1
  62   32   34 1
  63   32   62 1
  64   33   63 1
  65   34   35 1
  66   34   64 1
  67   34   65 1
  68   35   66 1

#	End of record

