#	Name: ASD04550004
#	Creating user name:	WinNT
#	Creation time:	15. 06. 2019 20:49

#	Modifying user name:	WinNT
#	Modification time:	15. 06. 2019 20:49

#	Program:	/corina/corina34_cracker 3.40 0067  02.08.2006

@<TRIPOS>MOLECULE
ASD04550004
  28   28    0    0    0
SMALL
NO_CHARGES


@<TRIPOS>ATOM
   1 C1            -0.0168     1.3911     0.0097 C.ar    
   2 C2             0.0021    -0.0041     0.0020 C.ar    
   3 C3             1.2231    -0.6792    -0.0133 C.ar    
   4 C4             2.4032     0.0356    -0.0207 C.ar    
   5 C5             2.3776     1.4188    -0.0126 C.ar    
   6 C6             1.1703     2.0942     0.0021 C.ar    
   7 C7            -1.2660    -0.7636     0.0105 C.2     
   8 C8            -1.2447    -2.0891     0.0032 C.2     
   9 C9             3.6704     2.1932    -0.0197 C.3     
  10 C10            3.7261     3.0811    -1.2645 C.3     
  11 C11           -2.5375    -2.8634     0.0119 C.3     
  12 C12            3.7474     3.0537     1.2150 C.2     
  13 O13            2.8450     3.0396     2.0184 O.2     
  14 O14            4.8184     3.8358     1.4223 O.3     
  15 H15           -0.9587     1.9195     0.0170 H       
  16 H16            1.2444    -1.7590    -0.0189 H       
  17 H17            3.3489    -0.4857    -0.0325 H       
  18 H18            1.1570     3.1741     0.0081 H       
  19 H19           -2.2097    -0.2387     0.0227 H       
  20 H20           -0.3009    -2.6140    -0.0090 H       
  21 H21            4.5101     1.4983    -0.0313 H       
  22 H22            2.8864     3.7760    -1.2530 H       
  23 H23            4.6612     3.6412    -1.2697 H       
  24 H24            3.6704     2.4587    -2.1576 H       
  25 H25           -3.1044    -2.6141     0.9089 H       
  26 H26           -3.1220    -2.6046    -0.8709 H       
  27 H27           -2.3212    -3.9317     0.0040 H       
  28 H28            4.8226     4.3699     2.2284 H       
@<TRIPOS>BOND
   1    1    2 ar
   2    1    6 ar
   3    1   15 1
   4    2    3 ar
   5    2    7 1
   6    3    4 ar
   7    3   16 1
   8    4    5 ar
   9    4   17 1
  10    5    6 ar
  11    5    9 1
  12    6   18 1
  13    7    8 2
  14    7   19 1
  15    8   11 1
  16    8   20 1
  17    9   10 1
  18    9   12 1
  19    9   21 1
  20   10   22 1
  21   10   23 1
  22   10   24 1
  23   11   25 1
  24   11   26 1
  25   11   27 1
  26   12   13 2
  27   12   14 1
  28   14   28 1

#	End of record

