#	Name: ASD03080020
#	Creating user name:	WinNT
#	Creation time:	15. 06. 2019 20:26

#	Modifying user name:	WinNT
#	Modification time:	15. 06. 2019 20:26

#	Program:	/corina/corina34_cracker 3.40 0067  02.08.2006

@<TRIPOS>MOLECULE
ASD03080020
  27   29    0    0    0
SMALL
NO_CHARGES


@<TRIPOS>ATOM
   1 C1             0.0021    -0.0041     0.0020 C.1     
   2 C2            -0.0173     1.4278     0.0099 C.ar    
   3 C3             1.1830     2.1430     0.0023 C.ar    
   4 C4             1.1640     3.5194     0.0099 C.ar    
   5 C5            -0.0550     4.2011     0.0257 C.ar    
   6 C6            -1.2550     3.4865     0.0338 C.ar    
   7 C7            -1.2367     2.1101     0.0194 C.ar    
   8 N8             0.0175    -1.1399    -0.0042 N.1     
   9 O9             0.9920     6.4932     0.0282 O.3     
  10 N10            0.6287     7.6502     0.0385 N.2     
  11 C11           -0.6780     7.7163     0.0522 C.2     
  12 N12           -1.1455     6.4507     0.0497 N.2     
  13 C13           -0.0750     5.6791     0.0344 C.2     
  14 C14           -2.8867     8.8853     0.0823 C.ar    
  15 C15           -1.4954     8.9554     0.0681 C.ar    
  16 C16           -0.8819    10.2105     0.0694 C.ar    
  17 C17           -1.6885    11.3358     0.0849 C.ar    
  18 C18           -3.0627    11.1827     0.0985 C.ar    
  19 N19           -3.6133     9.9839     0.0968 N.ar    
  20 H20            2.1256     1.6159    -0.0092 H       
  21 H21            2.0918     4.0723     0.0040 H       
  22 H22           -2.1974     4.0139     0.0464 H       
  23 H23           -2.1647     1.5576     0.0204 H       
  24 H24           -3.3740     7.9215     0.0769 H       
  25 H25            0.1943    10.3008     0.0590 H       
  26 H26           -1.2492    12.3224     0.0868 H       
  27 H27           -3.6950    12.0581     0.1110 H       
@<TRIPOS>BOND
   1    1    2 1
   2    1    8 3
   3    2    3 ar
   4    2    7 ar
   5    3    4 ar
   6    3   20 1
   7    4    5 ar
   8    4   21 1
   9    5    6 ar
  10    5   13 1
  11    6    7 ar
  12    6   22 1
  13    7   23 1
  14    9   10 1
  15    9   13 1
  16   10   11 2
  17   11   12 1
  18   11   15 1
  19   12   13 2
  20   14   15 ar
  21   14   19 ar
  22   14   24 1
  23   15   16 ar
  24   16   17 ar
  25   16   25 1
  26   17   18 ar
  27   17   26 1
  28   18   19 ar
  29   18   27 1

#	End of record

