#	Name: ASD01883762
#	Creating user name:	WinNT
#	Creation time:	15. 06. 2019 19:47

#	Modifying user name:	WinNT
#	Modification time:	15. 06. 2019 19:47

#	Program:	/corina/corina34_cracker 3.40 0067  02.08.2006

@<TRIPOS>MOLECULE
ASD01883762
  53   57    0    0    0
SMALL
NO_CHARGES


@<TRIPOS>ATOM
   1 C1            -0.2306     1.1018    -0.6229 C.2     
   2 C2            -0.1367    -0.2936    -0.5161 C.2     
   3 C3            -1.3201    -1.0614    -0.5244 C.2     
   4 C4            -2.5265    -0.4743    -0.6331 C.2     
   5 N5            -2.6637     0.8793    -0.7396 N.pl3   
   6 C6            -1.5636     1.6982    -0.7324 C.2     
   7 C7            -3.7618     1.6912    -0.8592 C.2     
   8 C8            -3.3121     2.9620    -0.9274 C.2     
   9 N9            -1.9774     2.9473    -0.8480 N.2     
  10 C10           -5.2014     1.2480    -0.9057 C.3     
  11 C11            1.1823    -0.9497    -0.3973 C.ar    
  12 C12            1.5206    -1.6371     0.7695 C.ar    
  13 C13            2.7563    -2.2505     0.8802 C.ar    
  14 C14            3.6624    -2.1869    -0.1749 C.ar    
  15 C15            3.3222    -1.4984    -1.3384 C.ar    
  16 C16            2.0933    -0.8893    -1.4542 C.ar    
  17 C17           -5.6466     1.1131    -2.3633 C.3     
  18 F18           -4.8458     0.1655    -3.0098 F       
  19 F19           -6.9830     0.7016    -2.4065 F       
  20 F20           -5.5182     2.3489    -3.0064 F       
  21 C21            0.9440     1.9209    -0.6188 C.1     
  22 N22            1.8758     2.5707    -0.6156 N.1     
  23 O23            3.0596    -2.9031     2.0364 O.3     
  24 C24            4.1852    -3.7865     1.9995 C.3     
  25 C25            5.3281    -3.0641     1.2745 C.3     
  26 N26            4.9134    -2.8016    -0.1083 N.3     
  27 C27            5.9266    -2.0119    -0.8208 C.3     
  28 C28            6.0660    -0.6385    -0.1569 C.3     
  29 C29            7.1783     0.1472    -0.8564 C.3     
  30 O30            8.3977    -0.5951    -0.7908 O.3     
  31 C31            8.3410    -1.8685    -1.4369 C.3     
  32 C32            7.2755    -2.7352    -0.7607 C.3     
  33 H33           -1.2572    -2.1365    -0.4427 H       
  34 H34           -3.4119    -1.0927    -0.6364 H       
  35 H35           -3.9278     3.8438    -1.0260 H       
  36 H36           -5.3014     0.2851    -0.4047 H       
  37 H37           -5.8253     1.9862    -0.4020 H       
  38 H38            0.8171    -1.6900     1.5873 H       
  39 H39            4.0262    -1.4458    -2.1558 H       
  40 H40            1.8368    -0.3580    -2.3588 H       
  41 H41            4.4919    -4.0356     3.0154 H       
  42 H42            3.9225    -4.6961     1.4594 H       
  43 H43            5.5423    -2.1212     1.7776 H       
  44 H44            6.2181    -3.6933     1.2764 H       
  45 H45            5.6253    -1.8853    -1.8607 H       
  46 H46            5.1255    -0.0946    -0.2442 H       
  47 H47            6.3174    -0.7668     0.8959 H       
  48 H48            6.9075     0.3100    -1.8996 H       
  49 H49            7.3110     1.1088    -0.3607 H       
  50 H50            8.0855    -1.7320    -2.4876 H       
  51 H51            9.3114    -2.3589    -1.3593 H       
  52 H52            7.5513    -2.9058     0.2800 H       
  53 H53            7.1999    -3.6907    -1.2798 H       
@<TRIPOS>BOND
   1    1    2 2
   2    1   21 1
   3    1    6 1
   4    2    3 1
   5    2   11 1
   6    3    4 2
   7    3   33 1
   8    4    5 1
   9    4   34 1
  10    5    6 1
  11    5    7 1
  12    6    9 2
  13    7    8 2
  14    7   10 1
  15    8    9 1
  16    8   35 1
  17   10   17 1
  18   10   36 1
  19   10   37 1
  20   11   12 ar
  21   11   16 ar
  22   12   13 ar
  23   12   38 1
  24   13   14 ar
  25   13   23 1
  26   14   15 ar
  27   14   26 1
  28   15   16 ar
  29   15   39 1
  30   16   40 1
  31   17   18 1
  32   17   19 1
  33   17   20 1
  34   21   22 3
  35   23   24 1
  36   24   25 1
  37   24   41 1
  38   24   42 1
  39   25   26 1
  40   25   43 1
  41   25   44 1
  42   26   27 1
  43   27   28 1
  44   27   32 1
  45   27   45 1
  46   28   29 1
  47   28   46 1
  48   28   47 1
  49   29   30 1
  50   29   48 1
  51   29   49 1
  52   30   31 1
  53   31   32 1
  54   31   50 1
  55   31   51 1
  56   32   52 1
  57   32   53 1

#	End of record

