#	Name: ASD09380003
#	Creating user name:	WinNT
#	Creation time:	15. 06. 2019 21:21

#	Modifying user name:	WinNT
#	Modification time:	15. 06. 2019 21:21

#	Program:	/corina/corina34_cracker 3.40 0067  02.08.2006

@<TRIPOS>MOLECULE
ASD09380003
  73   77    0    0    0
SMALL
NO_CHARGES


@<TRIPOS>ATOM
   1 C1             0.1235     1.6208    -0.1515 C.ar    
   2 C2             1.3314     2.2459    -0.4278 C.ar    
   3 C3             2.5101     1.5192    -0.4041 C.ar    
   4 C4             2.4803     0.1593    -0.1018 C.ar    
   5 C5             1.2611    -0.4627     0.1756 C.ar    
   6 C6             0.0905     0.2716     0.1488 C.ar    
   7 C7             3.7377    -0.6242    -0.0752 C.ar    
   8 C8             4.6242    -0.5019     1.0090 C.ar    
   9 C9             5.8040    -1.2453     1.0208 C.ar    
  10 C10            6.0946    -2.0939    -0.0274 C.ar    
  11 C11            5.2206    -2.2137    -1.0951 C.ar    
  12 C12            4.0455    -1.4901    -1.1210 C.ar    
  13 C13            7.3709    -2.8950    -0.0107 C.3     
  14 O14            7.1367    -4.1509     0.6295 O.3     
  15 C15            8.1935    -4.9996     0.7283 C.ar    
  16 C16            8.0372    -6.2358     1.3382 C.ar    
  17 C17            9.1130    -7.0967     1.4374 C.ar    
  18 C18           10.3448    -6.7272     0.9295 C.ar    
  19 C19           10.5033    -5.4955     0.3217 C.ar    
  20 C20            9.4291    -4.6335     0.2145 C.ar    
  21 C21           11.5167    -7.6683     1.0391 C.3     
  22 C22           12.0290    -8.0101    -0.3614 C.3     
  23 F23            1.2259    -1.7809     0.4694 F       
  24 C24            4.3084     0.4080     2.1277 C.2     
  25 C25            4.4259     1.7249     2.0808 C.2     
  26 C26            4.0194     2.3473     3.3964 C.3     
  27 C27            4.0324     1.1782     4.4078 C.3     
  28 C28            3.8009    -0.0380     3.4793 C.3     
  29 C29            2.3112    -0.3801     3.4112 C.3     
  30 C30            4.6035    -1.2440     3.9715 C.3     
  31 C31           12.6344    -6.9997     1.8420 C.3     
  32 C32           12.3179    -6.5791     3.2786 C.3     
  33 C33           13.2261    -7.7821     3.0161 C.3     
  34 C34           13.1199    -9.0447    -0.2586 C.2     
  35 O35           13.4533    -9.4656     0.8238 O.2     
  36 O36           13.7211    -9.4988    -1.3696 O.3     
  37 O37            1.3576     3.5728    -0.7225 O.3     
  38 C38            0.1050     4.2606    -0.7296 C.3     
  39 H39           -0.7934     2.1913    -0.1668 H       
  40 H40            3.4501     2.0053    -0.6198 H       
  41 H41           -0.8523    -0.2095     0.3637 H       
  42 H42            6.4902    -1.1564     1.8501 H       
  43 H43            5.4579    -2.8810    -1.9104 H       
  44 H44            3.3688    -1.5891    -1.9569 H       
  45 H45            7.7061    -3.0656    -1.0338 H       
  46 H46            8.1375    -2.3458     0.5360 H       
  47 H47            7.0753    -6.5248     1.7353 H       
  48 H48            8.9919    -8.0591     1.9124 H       
  49 H49           11.4666    -5.2088    -0.0736 H       
  50 H50            9.5533    -3.6715    -0.2605 H       
  51 H51           11.2030    -8.5819     1.5442 H       
  52 H52           11.2094    -8.4047    -0.9619 H       
  53 H53           12.4247    -7.1106    -0.8331 H       
  54 H54            4.7665     2.2799     1.2192 H       
  55 H55            4.7372     3.1125     3.6919 H       
  56 H56            3.0188     2.7731     3.3216 H       
  57 H57            4.9955     1.1103     4.9138 H       
  58 H58            3.2205     1.2763     5.1284 H       
  59 H59            1.7564     0.4838     3.0451 H       
  60 H60            2.1621    -1.2212     2.7342 H       
  61 H61            1.9538    -0.6465     4.4059 H       
  62 H62            4.2693    -1.5192     4.9718 H       
  63 H63            4.4503    -2.0836     3.2934 H       
  64 H64            5.6628    -0.9885     3.9998 H       
  65 H65           13.3096    -6.3644     1.2688 H       
  66 H66           12.7852    -5.6673     3.6506 H       
  67 H67           11.3134    -6.7787     3.6518 H       
  68 H68           12.8191    -8.7732     3.2166 H       
  69 H69           14.2909    -7.6618     3.2155 H       
  70 H70           14.4151   -10.1621    -1.2533 H       
  71 H71           -0.5534     3.8087    -1.4715 H       
  72 H72           -0.3547     4.1884     0.2561 H       
  73 H73            0.2677     5.3092    -0.9788 H       
@<TRIPOS>BOND
   1    1    2 ar
   2    1    6 ar
   3    1   39 1
   4    2    3 ar
   5    2   37 1
   6    3    4 ar
   7    3   40 1
   8    4    5 ar
   9    4    7 1
  10    5    6 ar
  11    5   23 1
  12    6   41 1
  13    7    8 ar
  14    7   12 ar
  15    8    9 ar
  16    8   24 1
  17    9   10 ar
  18    9   42 1
  19   10   11 ar
  20   10   13 1
  21   11   12 ar
  22   11   43 1
  23   12   44 1
  24   13   14 1
  25   13   45 1
  26   13   46 1
  27   14   15 1
  28   15   16 ar
  29   15   20 ar
  30   16   17 ar
  31   16   47 1
  32   17   18 ar
  33   17   48 1
  34   18   19 ar
  35   18   21 1
  36   19   20 ar
  37   19   49 1
  38   20   50 1
  39   21   22 1
  40   21   31 1
  41   21   51 1
  42   22   34 1
  43   22   52 1
  44   22   53 1
  45   24   25 2
  46   24   28 1
  47   25   26 1
  48   25   54 1
  49   26   27 1
  50   26   55 1
  51   26   56 1
  52   27   28 1
  53   27   57 1
  54   27   58 1
  55   28   29 1
  56   28   30 1
  57   29   59 1
  58   29   60 1
  59   29   61 1
  60   30   62 1
  61   30   63 1
  62   30   64 1
  63   31   32 1
  64   31   33 1
  65   31   65 1
  66   32   33 1
  67   32   66 1
  68   32   67 1
  69   33   68 1
  70   33   69 1
  71   34   35 2
  72   34   36 1
  73   36   70 1
  74   37   38 1
  75   38   71 1
  76   38   72 1
  77   38   73 1

#	End of record

