#	Name: ASD00510010
#	Creating user name:	WinNT
#	Creation time:	15. 06. 2019 18:36

#	Modifying user name:	WinNT
#	Modification time:	15. 06. 2019 18:36

#	Program:	/corina/corina34_cracker 3.40 0067  02.08.2006

@<TRIPOS>MOLECULE
ASD00510010
  44   47    0    0    0
SMALL
NO_CHARGES


@<TRIPOS>ATOM
   1 C1            -0.0169     1.3953     0.0097 C.ar    
   2 C2             0.0021    -0.0041     0.0020 C.ar    
   3 C3             1.1964    -0.6619    -0.0129 C.ar    
   4 C4             2.3990     0.0401    -0.0200 C.ar    
   5 C5             2.4162     1.4019    -0.0129 C.ar    
   6 C6             1.2039     2.1123     0.0019 C.ar    
   7 C7             1.1826     3.5187     0.0096 C.ar    
   8 C8             0.0049     4.1970     0.0249 C.ar    
   9 C9            -1.2230     3.5368     0.0332 C.ar    
  10 C10           -1.2750     2.1411     0.0197 C.ar    
  11 N11           -2.4688     1.4901     0.0218 N.2     
  12 N12           -3.5699     2.1621     0.0306 N.2     
  13 O13           -2.3746     4.2545     0.0486 O.3     
  14 S14            2.7013     4.4121    -0.0002 S.o2    
  15 O15            2.9823     4.7405     1.3534 O.2     
  16 O16            3.5952     3.6749    -0.8228 O.2     
  17 O17            2.4443     5.7296    -0.7177 O.3     
  18 N18            3.6780    -0.7051    -0.0352 N.pl3   
  19 O19            3.6732    -1.9231    -0.0413 O.2     
  20 O20            4.7352    -0.1003    -0.0415 O.2     
  21 C21           -4.7665     1.5096     0.0328 C.ar    
  22 C22           -7.1931     0.1367     0.0378 C.ar    
  23 C23           -5.9746    -0.5697     0.0338 C.ar    
  24 C24           -4.7964     0.1020     0.0312 C.ar    
  25 C25           -5.9542     2.2395     0.0423 C.ar    
  26 C26           -7.1844     1.5538     0.0449 C.ar    
  27 C27           -8.4039     2.2514     0.0478 C.ar    
  28 C28           -9.5765     1.5592     0.0439 C.ar    
  29 C29           -9.5854     0.1662     0.0370 C.ar    
  30 C30           -8.4223    -0.5424     0.0340 C.ar    
  31 O31           -5.9253     3.5953     0.0495 O.3     
  32 H32           -0.9240    -0.5598     0.0082 H       
  33 H33            1.2098    -1.7418    -0.0188 H       
  34 H34            3.3566     1.9329    -0.0182 H       
  35 H35            0.0207     5.2769     0.0312 H       
  36 H36           -2.7170     4.4675    -0.8303 H       
  37 H37            3.2213     6.3020    -0.7792 H       
  38 H38           -5.9785    -1.6497     0.0287 H       
  39 H39           -3.8684    -0.4505     0.0276 H       
  40 H40           -8.4112     3.3314     0.0535 H       
  41 H41          -10.5127     2.0977     0.0466 H       
  42 H42          -10.5287    -0.3597     0.0344 H       
  43 H43           -8.4453    -1.6222     0.0283 H       
  44 H44           -5.9211     3.9933    -0.8318 H       
@<TRIPOS>BOND
   1    1    2 ar
   2    1    6 ar
   3    1   10 ar
   4    2    3 ar
   5    2   32 1
   6    3    4 ar
   7    3   33 1
   8    4    5 ar
   9    4   18 1
  10    5    6 ar
  11    5   34 1
  12    6    7 ar
  13    7    8 ar
  14    7   14 1
  15    8    9 ar
  16    8   35 1
  17    9   10 ar
  18    9   13 1
  19   10   11 1
  20   11   12 2
  21   12   21 1
  22   13   36 1
  23   14   15 2
  24   14   16 2
  25   14   17 1
  26   17   37 1
  27   18   19 2
  28   18   20 2
  29   21   25 ar
  30   21   24 ar
  31   22   23 ar
  32   22   26 ar
  33   22   30 ar
  34   23   24 ar
  35   23   38 1
  36   24   39 1
  37   25   26 ar
  38   25   31 1
  39   26   27 ar
  40   27   28 ar
  41   27   40 1
  42   28   29 ar
  43   28   41 1
  44   29   30 ar
  45   29   42 1
  46   30   43 1
  47   31   44 1

#	End of record

