#	Name: ASD08170364
#	Creating user name:	WinNT
#	Creation time:	15. 06. 2019 21:17

#	Modifying user name:	WinNT
#	Modification time:	15. 06. 2019 21:17

#	Program:	/corina/corina34_cracker 3.40 0067  02.08.2006

@<TRIPOS>MOLECULE
ASD08170364
  62   65    0    0    0
SMALL
NO_CHARGES


@<TRIPOS>ATOM
   1 C1            -0.0155     1.2910     0.0091 C.2     
   2 N2             0.0021    -0.0041     0.0020 N.2     
   3 N3            -1.1192    -0.5842     0.0096 N.2     
   4 C4            -2.1834     0.1604     0.0237 C.2     
   5 S5            -1.7028     1.8047     0.0357 S.3     
   6 C6             1.1892     2.1964     0.0025 C.3     
   7 C7             3.1995     3.7447    -2.8935 C.3     
   8 C8             4.4042     4.6501    -2.9002 C.2     
   9 C9             5.1208     5.2044    -4.1153 C.3     
  10 C10            6.2368     6.0363    -3.5147 C.2     
  11 N11            6.1078     5.9230    -2.2240 N.2     
  12 N12            5.0316     5.1152    -1.8716 N.2     
  13 N13            7.1891     6.7606    -4.1930 N.am    
  14 C14            8.1217     7.4536    -3.5100 C.2     
  15 O15            8.1212     7.4385    -2.2975 O.2     
  16 C16            9.1651     8.2473    -4.2532 C.3     
  17 C17            8.4993     9.3671    -5.0107 C.ar    
  18 N18           -3.4954    -0.3008     0.0334 N.am    
  19 C19           -3.7441    -1.6254     0.0287 C.2     
  20 O20           -2.8238    -2.4152     0.0161 O.2     
  21 C21           -5.1658    -2.1251     0.0391 C.3     
  22 C22           -5.8506    -1.7185    -1.2402 C.ar    
  23 C23            8.1582     9.1957    -6.3393 C.ar    
  24 C24           -5.7280    -2.5053    -2.3701 C.ar    
  25 O25           -5.1691    -3.5499     0.1491 O.3     
  26 O26           10.1014     8.7931    -3.3217 O.3     
  27 C27            7.5475    10.2228    -7.0342 C.ar    
  28 C28            7.2775    11.4213    -6.4003 C.ar    
  29 C29            7.6177    11.5924    -5.0715 C.ar    
  30 C30            8.2245    10.5637    -4.3754 C.ar    
  31 C31           -6.6061    -0.5616    -1.2822 C.ar    
  32 C32           -7.2342    -0.1885    -2.4557 C.ar    
  33 C33           -7.1065    -0.9721    -3.5874 C.ar    
  34 C34           -6.3561    -2.1323    -3.5436 C.ar    
  35 C35            1.5828     2.5110    -1.4422 C.3     
  36 C36            2.8059     3.4301    -1.4489 C.3     
  37 H37            0.9501     3.1232     0.5240 H       
  38 H38            2.0193     1.7002     0.5054 H       
  39 H39            2.3694     4.2409    -3.3964 H       
  40 H40            3.4386     2.8179    -3.4151 H       
  41 H41            5.5282     4.3964    -4.7230 H       
  42 H42            4.4502     5.8295    -4.7049 H       
  43 H43            7.1895     6.7728    -5.1629 H       
  44 H44            9.6872     7.5952    -4.9533 H       
  45 H45           -4.2314     0.3309     0.0435 H       
  46 H46           -5.6963    -1.6940     0.8881 H       
  47 H47            8.3691     8.2594    -6.8345 H       
  48 H48           -5.1411    -3.4113    -2.3362 H       
  49 H49           -4.7133    -4.0013    -0.5745 H       
  50 H50            9.7056     9.3846    -2.6671 H       
  51 H51            7.2816    10.0892    -8.0724 H       
  52 H52            6.8010    12.2240    -6.9434 H       
  53 H53            7.4071    12.5288    -4.5764 H       
  54 H54            8.4904    10.6973    -3.3372 H       
  55 H55           -6.7058     0.0506    -0.3981 H       
  56 H56           -7.8250     0.7150    -2.4884 H       
  57 H57           -7.5976    -0.6809    -4.5041 H       
  58 H58           -6.2564    -2.7445    -4.4277 H       
  59 H59            1.8219     1.5842    -1.9637 H       
  60 H60            0.7527     3.0071    -1.9450 H       
  61 H61            3.6360     2.9340    -0.9460 H       
  62 H62            2.5668     4.3569    -0.9274 H       
@<TRIPOS>BOND
   1    1    2 2
   2    1    6 1
   3    1    5 1
   4    2    3 1
   5    3    4 2
   6    4    5 1
   7    4   18 1
   8    6   35 1
   9    6   37 1
  10    6   38 1
  11    7    8 1
  12    7   36 1
  13    7   39 1
  14    7   40 1
  15    8    9 1
  16    8   12 2
  17    9   10 1
  18    9   41 1
  19    9   42 1
  20   10   11 2
  21   10   13 1
  22   11   12 1
  23   13   14 am
  24   13   43 1
  25   14   15 2
  26   14   16 1
  27   16   17 1
  28   16   26 1
  29   16   44 1
  30   17   23 ar
  31   17   30 ar
  32   18   19 am
  33   18   45 1
  34   19   20 2
  35   19   21 1
  36   21   22 1
  37   21   25 1
  38   21   46 1
  39   22   31 ar
  40   22   24 ar
  41   23   27 ar
  42   23   47 1
  43   24   34 ar
  44   24   48 1
  45   25   49 1
  46   26   50 1
  47   27   28 ar
  48   27   51 1
  49   28   29 ar
  50   28   52 1
  51   29   30 ar
  52   29   53 1
  53   30   54 1
  54   31   32 ar
  55   31   55 1
  56   32   33 ar
  57   32   56 1
  58   33   34 ar
  59   33   57 1
  60   34   58 1
  61   35   36 1
  62   35   59 1
  63   35   60 1
  64   36   61 1
  65   36   62 1

#	End of record

