#	Name: ASD05790084
#	Creating user name:	WinNT
#	Creation time:	15. 06. 2019 21:03

#	Modifying user name:	WinNT
#	Modification time:	15. 06. 2019 21:03

#	Program:	/corina/corina34_cracker 3.40 0067  02.08.2006

@<TRIPOS>MOLECULE
ASD05790084
  81   86    0    0    0
SMALL
NO_CHARGES


@<TRIPOS>ATOM
   1 C1            -0.0077     1.4967     0.0278 C.3     
   2 C2             0.0127    -0.0331    -0.0166 C.3     
   3 C3             0.7124    -0.4938    -1.2961 C.3     
   4 C4             2.1533     0.0248    -1.3128 C.3     
   5 C5             2.1378     1.5615    -1.2553 C.3     
   6 C6             1.4291     2.0209     0.0168 C.3     
   7 C7             2.8389    -0.4644    -2.5894 C.3     
   8 C8             2.1615     0.1223    -3.8393 C.3     
   9 C9             2.2371     1.6336    -3.7274 C.3     
  10 C10            1.4052     2.0481    -2.4862 C.3     
  11 C11            1.5372     2.4222    -4.8393 C.3     
  12 C12            1.1944     3.7612    -4.1922 C.2     
  13 C13            1.2641     3.5512    -2.6750 C.3     
  14 C14            2.4944     2.6093    -6.0021 C.3     
  15 C15            1.9091     3.3419    -7.1605 C.3     
  16 C16            1.8607     4.8438    -7.0209 C.3     
  17 C17            0.7006     5.3058    -6.1569 C.3     
  18 C18            0.8477     4.8453    -4.7508 C.2     
  19 C19            1.6994     5.4718    -8.4370 C.3     
  20 C20            2.6335     6.6891    -8.3348 C.3     
  21 C21            3.7741     6.0635    -7.4856 C.3     
  22 O22            3.1054     5.3332    -6.4754 O.3     
  23 N23            3.2352     7.1167    -9.5927 N.3     
  24 C24            4.1794     8.2174    -9.3192 C.3     
  25 C25            5.2872     7.7865    -8.3624 C.3     
  26 C26            4.7020     7.1862    -7.0713 C.3     
  27 C27            3.5739     2.0893    -1.2612 C.3     
  28 C28            0.5026     5.9215    -3.7539 C.3     
  29 C29            6.1446     9.0027    -8.0069 C.3     
  30 C30            2.1730     4.5052    -9.5243 C.3     
  31 O31           -1.3492    -0.5364    -0.0012 O.3     
  32 O32           -1.2551    -0.5829     2.2062 O.2     
  33 C33           -1.8945    -0.7819     1.2005 C.2     
  34 C34           -3.3044    -1.3058     1.2954 C.3     
  35 H35           -0.5413     1.8789    -0.8424 H       
  36 H36           -0.5090     1.8277     0.9373 H       
  37 H37            0.5517    -0.4149     0.8504 H       
  38 H38            0.7187    -1.5831    -1.3337 H       
  39 H39            0.1771    -0.1049    -2.1623 H       
  40 H40            2.6883    -0.3647    -0.4466 H       
  41 H41            1.4176     3.1103     0.0518 H       
  42 H42            1.9616     1.6371     0.8870 H       
  43 H43            3.8853    -0.1594    -2.5730 H       
  44 H44            2.7848    -1.5523    -2.6304 H       
  45 H45            2.6858    -0.2097    -4.7354 H       
  46 H46            1.1194    -0.1947    -3.8795 H       
  47 H47            3.2731     1.9535    -3.6154 H       
  48 H48            0.4200     1.5841    -2.5339 H       
  49 H49            0.6296     1.9092    -5.1572 H       
  50 H50            0.3492     3.9074    -2.2016 H       
  51 H51            2.1304     4.0672    -2.2613 H       
  52 H52            3.3664     3.1593    -5.6485 H       
  53 H53            2.8225     1.6272    -6.3427 H       
  54 H54            2.4929     3.0997    -8.0486 H       
  55 H55            0.8928     2.9800    -7.3159 H       
  56 H56            0.6574     6.3949    -6.1719 H       
  57 H57           -0.2282     4.9084    -6.5661 H       
  58 H58            0.6693     5.7815    -8.6130 H       
  59 H59            2.1523     7.5160    -7.8126 H       
  60 H60            4.3371     5.3698    -8.1101 H       
  61 H61            3.6998     6.3474   -10.0513 H       
  62 H62            4.6273     8.5430   -10.2581 H       
  63 H63            3.6341     9.0522    -8.8788 H       
  64 H64            5.9126     7.0401    -8.8523 H       
  65 H65            4.1440     7.9479    -6.5267 H       
  66 H66            5.5045     6.7939    -6.4466 H       
  67 H67            4.1104     1.6730    -2.1138 H       
  68 H68            3.5610     3.1767    -1.3356 H       
  69 H69            4.0732     1.7941    -0.3384 H       
  70 H70            0.2123     6.8285    -4.2842 H       
  71 H71           -0.3245     5.5857    -3.1285 H       
  72 H72            1.3706     6.1287    -3.1280 H       
  73 H73            5.5219     9.7591    -7.5292 H       
  74 H74            6.9380     8.7006    -7.3232 H       
  75 H75            6.5847     9.4150    -8.9148 H       
  76 H76            1.5827     3.5900    -9.4791 H       
  77 H77            2.0489     4.9697   -10.5025 H       
  78 H78            3.2249     4.2672    -9.3658 H       
  79 H79           -3.2886    -2.3956     1.2828 H       
  80 H80           -3.7589    -0.9597     2.2237 H       
  81 H81           -3.8853    -0.9410     0.4483 H       
@<TRIPOS>BOND
   1    1    2 1
   2    1    6 1
   3    1   35 1
   4    1   36 1
   5    2    3 1
   6    2   31 1
   7    2   37 1
   8    3    4 1
   9    3   38 1
  10    3   39 1
  11    4    5 1
  12    4    7 1
  13    4   40 1
  14    5    6 1
  15    5   27 1
  16    5   10 1
  17    6   41 1
  18    6   42 1
  19    7    8 1
  20    7   43 1
  21    7   44 1
  22    8    9 1
  23    8   45 1
  24    8   46 1
  25    9   10 1
  26    9   11 1
  27    9   47 1
  28   10   13 1
  29   10   48 1
  30   11   12 1
  31   11   14 1
  32   11   49 1
  33   12   13 1
  34   12   18 2
  35   13   50 1
  36   13   51 1
  37   14   15 1
  38   14   52 1
  39   14   53 1
  40   15   16 1
  41   15   54 1
  42   15   55 1
  43   16   17 1
  44   16   22 1
  45   16   19 1
  46   17   18 1
  47   17   56 1
  48   17   57 1
  49   18   28 1
  50   19   30 1
  51   19   20 1
  52   19   58 1
  53   20   21 1
  54   20   23 1
  55   20   59 1
  56   21   22 1
  57   21   26 1
  58   21   60 1
  59   23   24 1
  60   23   61 1
  61   24   25 1
  62   24   62 1
  63   24   63 1
  64   25   26 1
  65   25   29 1
  66   25   64 1
  67   26   65 1
  68   26   66 1
  69   27   67 1
  70   27   68 1
  71   27   69 1
  72   28   70 1
  73   28   71 1
  74   28   72 1
  75   29   73 1
  76   29   74 1
  77   29   75 1
  78   30   76 1
  79   30   77 1
  80   30   78 1
  81   31   33 1
  82   32   33 2
  83   33   34 1
  84   34   79 1
  85   34   80 1
  86   34   81 1

#	End of record

