#	Name: ASD04560155
#	Creating user name:	WinNT
#	Creation time:	15. 06. 2019 20:49

#	Modifying user name:	WinNT
#	Modification time:	15. 06. 2019 20:49

#	Program:	/corina/corina34_cracker 3.40 0067  02.08.2006

@<TRIPOS>MOLECULE
ASD04560155
  55   58    0    0    0
SMALL
NO_CHARGES


@<TRIPOS>ATOM
   1 C1            -0.2998     1.5135     0.1566 C.ar    
   2 C2            -0.2264     0.1465     0.2276 C.ar    
   3 C3             1.0093    -0.4913     0.1460 C.ar    
   4 C4             2.1738     0.2574    -0.0080 C.ar    
   5 C5             2.1068     1.6248    -0.0792 C.ar    
   6 C6             0.8676     2.2679     0.0020 C.ar    
   7 C7             0.7921     3.7385    -0.0747 C.2     
   8 O8             1.8081     4.3934    -0.2087 O.2     
   9 N9            -0.4028     4.3569     0.0037 N.am    
  10 C10           -0.4659     5.7542     0.0511 C.ar    
  11 C11           -1.5186     6.4239    -0.5585 C.ar    
  12 C12            0.4569     7.8516     0.7587 C.ar    
  13 C13            0.5213     6.4727     0.7127 C.ar    
  14 S14            1.0996    -2.2486     0.2383 S.3     
  15 C15           -1.5791     7.8028    -0.5102 C.ar    
  16 C16           -0.5907     8.5176     0.1452 C.ar    
  17 F17           -0.6518     9.8665     0.1913 F       
  18 C18            2.8777    -2.5743     0.0868 C.3     
  19 C19            3.1233    -4.0599     0.1486 C.2     
  20 C20            4.5277    -4.5964     0.0450 C.3     
  21 O21            2.1946    -4.8204     0.2811 O.2     
  22 C22            5.1310    -4.6942     1.4225 C.ar    
  23 C23            4.4978    -5.9635    -0.5885 C.ar    
  24 C24            3.7041    -6.9582    -0.0486 C.ar    
  25 C25            3.6766    -8.2122    -0.6296 C.ar    
  26 C26            4.4425    -8.4714    -1.7508 C.ar    
  27 C27            5.2355    -7.4764    -2.2913 C.ar    
  28 C28            5.2596    -6.2211    -1.7128 C.ar    
  29 C29            6.3456    -4.0905     1.6895 C.ar    
  30 C30            6.8990    -4.1803     2.9530 C.ar    
  31 C31            6.2376    -4.8732     3.9497 C.ar    
  32 C32            5.0226    -5.4760     3.6829 C.ar    
  33 C33            4.4671    -5.3827     2.4205 C.ar    
  34 H34           -1.2585     2.0072     0.2155 H       
  35 H35           -1.1276    -0.4366     0.3474 H       
  36 H36            3.1305    -0.2398    -0.0710 H       
  37 H37            3.0100     2.2049    -0.1979 H       
  38 H38           -1.2192     3.8335     0.0273 H       
  39 H39           -2.2894     5.8668    -1.0704 H       
  40 H40            1.2244     8.4107     1.2731 H       
  41 H41            1.3385     5.9537     1.1913 H       
  42 H42           -2.3977     8.3240    -0.9842 H       
  43 H43            3.2384    -2.1858    -0.8656 H       
  44 H44            3.4077    -2.0842     0.9034 H       
  45 H45            5.1288    -3.9250    -0.5682 H       
  46 H46            3.1057    -6.7557     0.8274 H       
  47 H47            3.0571    -8.9896    -0.2073 H       
  48 H48            4.4216    -9.4513    -2.2043 H       
  49 H49            5.8341    -7.6790    -3.1671 H       
  50 H50            5.8792    -5.4438    -2.1350 H       
  51 H51            6.8623    -3.5492     0.9108 H       
  52 H52            7.8483    -3.7093     3.1615 H       
  53 H53            6.6704    -4.9439     4.9367 H       
  54 H54            4.5060    -6.0177     4.4615 H       
  55 H55            3.5178    -5.8537     2.2121 H       
@<TRIPOS>BOND
   1    1    2 ar
   2    1    6 ar
   3    1   34 1
   4    2    3 ar
   5    2   35 1
   6    3    4 ar
   7    3   14 1
   8    4    5 ar
   9    4   36 1
  10    5    6 ar
  11    5   37 1
  12    6    7 1
  13    7    8 2
  14    7    9 am
  15    9   10 1
  16    9   38 1
  17   10   11 ar
  18   10   13 ar
  19   11   15 ar
  20   11   39 1
  21   12   13 ar
  22   12   16 ar
  23   12   40 1
  24   13   41 1
  25   14   18 1
  26   15   16 ar
  27   15   42 1
  28   16   17 1
  29   18   19 1
  30   18   43 1
  31   18   44 1
  32   19   20 1
  33   19   21 2
  34   20   22 1
  35   20   23 1
  36   20   45 1
  37   22   29 ar
  38   22   33 ar
  39   23   24 ar
  40   23   28 ar
  41   24   25 ar
  42   24   46 1
  43   25   26 ar
  44   25   47 1
  45   26   27 ar
  46   26   48 1
  47   27   28 ar
  48   27   49 1
  49   28   50 1
  50   29   30 ar
  51   29   51 1
  52   30   31 ar
  53   30   52 1
  54   31   32 ar
  55   31   53 1
  56   32   33 ar
  57   32   54 1
  58   33   55 1

#	End of record

