#	Name: ASD08178129
#	Creating user name:	WinNT
#	Creation time:	15. 06. 2019 21:18

#	Modifying user name:	WinNT
#	Modification time:	15. 06. 2019 21:18

#	Program:	/corina/corina34_cracker 3.40 0067  02.08.2006

@<TRIPOS>MOLECULE
ASD08178129
  86   91    0    0    0
SMALL
NO_CHARGES


@<TRIPOS>ATOM
   1 C1            -0.0184     1.5028     0.0103 C.2     
   2 C2             0.0021    -0.0041     0.0020 C.3     
   3 C3             0.0221    -0.5218     1.4416 C.3     
   4 C4             0.0429    -2.0516     1.4332 C.3     
   5 C5             0.0630    -2.5693     2.8728 C.3     
   6 C6             0.0834    -4.0761     2.8645 C.2     
   7 N7             1.1396    -4.8258     2.8513 N.2     
   8 N8             0.9467    -6.0734     2.8463 N.2     
   9 C9            -0.2824    -6.4936     2.8547 C.2     
  10 S10           -1.3267    -5.1359     2.8788 S.3     
  11 N11           -0.6838    -7.8252     2.8506 N.am    
  12 N12            1.0171     2.2809     0.0046 N.2     
  13 C13            0.2391    -8.8073     2.8374 C.2     
  14 O14            1.4197    -8.5298     2.8290 O.2     
  15 C15           -0.1960   -10.2501     2.8329 C.3     
  16 C16            1.0193   -11.1412     2.8177 C.ar    
  17 N17            0.7904     3.5228     0.0134 N.2     
  18 C18           -0.4495     3.9094     0.0274 C.2     
  19 S19           -1.4568     2.5237     0.0218 S.3     
  20 C20            2.6812   -12.3604     1.5909 C.ar    
  21 C21            1.5848   -11.5551     4.0067 C.ar    
  22 C22            2.7083   -12.3790     3.9912 C.ar    
  23 C23            3.2549   -12.7804     2.7740 C.ar    
  24 C24            1.5625   -11.5472     1.6122 C.ar    
  25 C25            3.3210   -12.8269     5.2664 C.ar    
  26 N26           -0.8870     5.2295     0.0390 N.am    
  27 C27            0.0089     6.2364     0.0358 C.2     
  28 O28            1.1967     5.9912     0.0228 O.2     
  29 C29           -0.4651     7.6668     0.0485 C.3     
  30 C30            0.7256     8.5906     0.0419 C.ar    
  31 C31            1.2592     9.0205    -1.1596 C.ar    
  32 C32            2.3519     9.8685    -1.1730 C.ar    
  33 C33            2.9158    10.2903     0.0140 C.ar    
  34 C34            2.3824     9.8604     1.2272 C.ar    
  35 C35            1.2781     9.0107     1.2349 C.ar    
  36 C36            2.9848    10.3102     2.5067 C.ar    
  37 C37            2.4508     9.8798     3.7199 C.ar    
  38 C38            3.0129    10.2996     4.9088 C.ar    
  39 C39            4.1049    11.1470     4.9002 C.ar    
  40 C40            4.6425    11.5806     3.6961 C.ar    
  41 C41            4.0888    11.1589     2.4984 C.ar    
  42 O42            5.7157    12.4144     3.6922 O.3     
  43 C43            6.2390    12.8042     4.9635 C.3     
  44 C44            4.4440   -13.6503     5.2502 C.ar    
  45 C45            5.0113   -14.0651     6.4439 C.ar    
  46 C46            4.4605   -13.6601     7.6520 C.ar    
  47 C47            3.3459   -12.8428     7.6685 C.ar    
  48 C48            2.7776   -12.4201     6.4835 C.ar    
  49 O49            6.1070   -14.8691     6.4323 O.3     
  50 C50            6.6395   -15.2583     7.6999 C.3     
  51 H51           -0.8875    -0.3767    -0.5057 H       
  52 H52            0.8922    -0.3525    -0.5218 H       
  53 H53            0.9118    -0.1491     1.9494 H       
  54 H54           -0.8680    -0.1733     1.9655 H       
  55 H55           -0.8467    -2.4242     0.9255 H       
  56 H56            0.9330    -2.4000     0.9094 H       
  57 H57            0.9526    -2.1967     3.3806 H       
  58 H58           -0.8271    -2.2209     3.3967 H       
  59 H59           -1.6281    -8.0470     2.8573 H       
  60 H60           -0.7854   -10.4546     3.7267 H       
  61 H61           -0.8003   -10.4446     1.9469 H       
  62 H62            3.1016   -12.6743     0.6469 H       
  63 H63            1.1574   -11.2408     4.9474 H       
  64 H64            4.1255   -13.4192     2.7562 H       
  65 H65            1.1166   -11.2212     0.6842 H       
  66 H66           -1.8369     5.4256     0.0495 H       
  67 H67           -1.0758     7.8550    -0.8345 H       
  68 H68           -1.0583     7.8451     0.9454 H       
  69 H69            0.8212     8.6926    -2.0908 H       
  70 H70            2.7648    10.2008    -2.1140 H       
  71 H71            3.7692    10.9521     0.0024 H       
  72 H72            0.8606     8.6745     2.1725 H       
  73 H73            1.5972     9.2183     3.7299 H       
  74 H74            2.5980     9.9653     5.8482 H       
  75 H75            4.5409    11.4729     5.8330 H       
  76 H76            4.5060    11.4954     1.5608 H       
  77 H77            5.4666    13.3236     5.5307 H       
  78 H78            6.5585    11.9181     5.5121 H       
  79 H79            7.0911    13.4681     4.8177 H       
  80 H80            4.8712   -13.9649     4.3095 H       
  81 H81            4.9040   -13.9848     8.5817 H       
  82 H82            2.9208   -12.5307     8.6110 H       
  83 H83            1.9068   -11.7816     6.4997 H       
  84 H84            6.9341   -14.3699     8.2585 H       
  85 H85            5.8811   -15.8050     8.2603 H       
  86 H86            7.5097   -15.8969     7.5478 H       
@<TRIPOS>BOND
   1    1    2 1
   2    1   12 2
   3    1   19 1
   4    2    3 1
   5    2   51 1
   6    2   52 1
   7    3    4 1
   8    3   53 1
   9    3   54 1
  10    4    5 1
  11    4   55 1
  12    4   56 1
  13    5    6 1
  14    5   57 1
  15    5   58 1
  16    6    7 2
  17    6   10 1
  18    7    8 1
  19    8    9 2
  20    9   10 1
  21    9   11 1
  22   11   13 am
  23   11   59 1
  24   12   17 1
  25   13   14 2
  26   13   15 1
  27   15   16 1
  28   15   60 1
  29   15   61 1
  30   16   21 ar
  31   16   24 ar
  32   17   18 2
  33   18   19 1
  34   18   26 1
  35   20   24 ar
  36   20   23 ar
  37   20   62 1
  38   21   22 ar
  39   21   63 1
  40   22   23 ar
  41   22   25 1
  42   23   64 1
  43   24   65 1
  44   25   44 ar
  45   25   48 ar
  46   26   27 am
  47   26   66 1
  48   27   28 2
  49   27   29 1
  50   29   30 1
  51   29   67 1
  52   29   68 1
  53   30   31 ar
  54   30   35 ar
  55   31   32 ar
  56   31   69 1
  57   32   33 ar
  58   32   70 1
  59   33   34 ar
  60   33   71 1
  61   34   35 ar
  62   34   36 1
  63   35   72 1
  64   36   37 ar
  65   36   41 ar
  66   37   38 ar
  67   37   73 1
  68   38   39 ar
  69   38   74 1
  70   39   40 ar
  71   39   75 1
  72   40   41 ar
  73   40   42 1
  74   41   76 1
  75   42   43 1
  76   43   77 1
  77   43   78 1
  78   43   79 1
  79   44   45 ar
  80   44   80 1
  81   45   46 ar
  82   45   49 1
  83   46   47 ar
  84   46   81 1
  85   47   48 ar
  86   47   82 1
  87   48   83 1
  88   49   50 1
  89   50   84 1
  90   50   85 1
  91   50   86 1

#	End of record

