#	Name: ASD02560082
#	Creating user name:	WinNT
#	Creation time:	15. 06. 2019 20:24

#	Modifying user name:	WinNT
#	Modification time:	15. 06. 2019 20:24

#	Program:	/corina/corina34_cracker 3.40 0067  02.08.2006

@<TRIPOS>MOLECULE
ASD02560082
  46   48    0    0    0
SMALL
NO_CHARGES


@<TRIPOS>ATOM
   1 C1             2.2715    -0.3602    -0.2041 C.3     
   2 C2             0.8486    -0.1499    -0.7213 C.3     
   3 C3             0.4074     1.2711    -0.4892 C.ar    
   4 C4             1.0220     2.0744     0.4574 C.ar    
   5 N5             2.0861     1.5884     1.2307 N.am    
   6 C6             2.3526     0.1435     1.2429 C.3     
   7 C7            -0.6382     1.7797    -1.2425 C.ar    
   8 C8            -1.0683     3.0781    -1.0515 C.ar    
   9 C9            -0.4567     3.8808    -0.1057 C.ar    
  10 C10            0.5867     3.3819     0.6495 C.ar    
  11 C11            2.8518     2.4324     1.9502 C.2     
  12 S12            3.4855     1.9299     3.5156 S.3     
  13 O13            3.1054     3.5410     1.5189 O.2     
  14 C14            4.3978     3.4228     3.9794 C.3     
  15 C15            5.0436     3.2190     5.3256 C.2     
  16 N16            5.7795     4.2048     5.8762 N.am    
  17 O17            4.9011     2.1679     5.9137 O.2     
  18 C18            6.3092     4.0480     7.1623 C.ar    
  19 C19            6.5546     2.7770     7.6633 C.ar    
  20 C20            7.0780     2.6253     8.9330 C.ar    
  21 C21            7.3570     3.7377     9.7051 C.ar    
  22 C22            7.1140     5.0059     9.2097 C.ar    
  23 C23            6.5960     5.1648     7.9385 C.ar    
  24 Cl24           6.2916     6.7568     7.3168 Cl      
  25 S25            8.0233     3.5392    11.3241 S.o2    
  26 O26            7.6901     4.7190    12.0426 O.2     
  27 O27            7.6520     2.2366    11.7539 O.2     
  28 N28            9.6728     3.5308    11.1778 N.am    
  29 Cl29           1.3561     4.3869     1.8376 Cl      
  30 H30            2.5184    -1.4214    -0.2357 H       
  31 H31            2.9720     0.1983    -0.8249 H       
  32 H32            0.8185    -0.3660    -1.7892 H       
  33 H33            0.1723    -0.8264    -0.1988 H       
  34 H34            1.6056    -0.3645     1.8529 H       
  35 H35            3.3483    -0.0449     1.6443 H       
  36 H36           -1.1195     1.1576    -1.9825 H       
  37 H37           -1.8840     3.4678    -1.6424 H       
  38 H38           -0.7948     4.8957     0.0426 H       
  39 H39            5.1672     3.6246     3.2341 H       
  40 H40            3.7107     4.2674     4.0301 H       
  41 H41            5.9421     5.0230     5.3811 H       
  42 H42            6.3363     1.9073     7.0613 H       
  43 H43            7.2690     1.6365     9.3229 H       
  44 H44            7.3331     5.8728     9.8154 H       
  45 H45           10.2257     3.8609    11.9032 H       
  46 H46           10.0860     3.1959    10.3667 H       
@<TRIPOS>BOND
   1    1    2 1
   2    1    6 1
   3    1   30 1
   4    1   31 1
   5    2    3 1
   6    2   32 1
   7    2   33 1
   8    3    4 ar
   9    3    7 ar
  10    4    5 1
  11    4   10 ar
  12    5    6 1
  13    5   11 am
  14    6   34 1
  15    6   35 1
  16    7    8 ar
  17    7   36 1
  18    8    9 ar
  19    8   37 1
  20    9   10 ar
  21    9   38 1
  22   10   29 1
  23   11   12 1
  24   11   13 2
  25   12   14 1
  26   14   15 1
  27   14   39 1
  28   14   40 1
  29   15   16 am
  30   15   17 2
  31   16   18 1
  32   16   41 1
  33   18   19 ar
  34   18   23 ar
  35   19   20 ar
  36   19   42 1
  37   20   21 ar
  38   20   43 1
  39   21   22 ar
  40   21   25 1
  41   22   23 ar
  42   22   44 1
  43   23   24 1
  44   25   26 2
  45   25   27 2
  46   25   28 am
  47   28   45 1
  48   28   46 1

#	End of record

