#	Name: ASD09890080
#	Creating user name:	WinNT
#	Creation time:	15. 06. 2019 21:24

#	Modifying user name:	WinNT
#	Modification time:	15. 06. 2019 21:24

#	Program:	/corina/corina34_cracker 3.40 0067  02.08.2006

@<TRIPOS>MOLECULE
ASD09890080
  46   49    0    0    0
SMALL
NO_CHARGES


@<TRIPOS>ATOM
   1 C1            -0.0176     1.3671     0.0636 C.2     
   2 N2            -0.0054    -0.0002     0.0338 N.pl3   
   3 C3            -1.2997    -0.4351     0.1164 C.2     
   4 N4            -2.0759     0.6193     0.1938 N.2     
   5 N5            -1.2621     1.7592     0.1659 N.2     
   6 S6            -1.8304    -2.1153     0.1180 S.3     
   7 C7            -3.6341    -1.9734     0.2492 C.3     
   8 C8             1.1335    -0.8132    -0.0647 C.ar    
   9 C9             2.0775    -0.8328     0.9579 C.ar    
  10 C10            3.1859    -1.6519     0.8150 C.ar    
  11 C11            3.3171    -2.4166    -0.3289 C.ar    
  12 N12            2.4042    -2.3751    -1.2798 N.ar    
  13 C13            1.3326    -1.6142    -1.1808 C.ar    
  14 C14           -4.2817    -3.3648     0.1389 C.3     
  15 C15           -5.0395    -3.6043     1.4612 C.3     
  16 C16           -5.3166    -2.1801     2.0034 C.3     
  17 C17           -4.0209    -1.4158     1.6346 C.3     
  18 O18            1.0701     2.1752     0.0035 O.3     
  19 C19            0.8648     3.5158    -0.0919 C.ar    
  20 C20           -0.4175     4.0093    -0.2837 C.ar    
  21 C21            1.9369     4.3906     0.0081 C.ar    
  22 C22            1.7282     5.7525    -0.0890 C.ar    
  23 C23            0.4468     6.2455    -0.2860 C.ar    
  24 C24           -0.6259     5.3712    -0.3808 C.ar    
  25 O25            0.2414     7.5863    -0.3811 O.3     
  26 C26           -1.1038     8.0238    -0.5838 C.3     
  27 H27           -4.0152    -1.3209    -0.5364 H       
  28 H28            1.9494    -0.2242     1.8409 H       
  29 H29            3.9388    -1.6921     1.5882 H       
  30 H30            4.1792    -3.0565    -0.4458 H       
  31 H31            0.6066    -1.6068    -1.9804 H       
  32 H32           -4.9777    -3.3874    -0.6996 H       
  33 H33           -3.5122    -4.1254     0.0066 H       
  34 H34           -5.9757    -4.1303     1.2745 H       
  35 H35           -4.4189    -4.1646     2.1604 H       
  36 H36           -6.1803    -1.7387     1.5061 H       
  37 H37           -5.4596    -2.1992     3.0838 H       
  38 H38           -3.2358    -1.6227     2.3619 H       
  39 H39           -4.2138    -0.3447     1.5745 H       
  40 H40           -1.2527     3.3286    -0.3575 H       
  41 H41            2.9346     4.0068     0.1622 H       
  42 H42            2.5628     6.4335    -0.0111 H       
  43 H43           -1.6236     5.7552    -0.5345 H       
  44 H44           -1.4868     7.6023    -1.5132 H       
  45 H45           -1.7235     7.6909     0.2487 H       
  46 H46           -1.1271     9.1121    -0.6418 H       
@<TRIPOS>BOND
   1    1    2 1
   2    1   18 1
   3    1    5 2
   4    2    3 1
   5    2    8 1
   6    3    4 2
   7    3    6 1
   8    4    5 1
   9    6    7 1
  10    7   14 1
  11    7   17 1
  12    7   27 1
  13    8    9 ar
  14    8   13 ar
  15    9   10 ar
  16    9   28 1
  17   10   11 ar
  18   10   29 1
  19   11   12 ar
  20   11   30 1
  21   12   13 ar
  22   13   31 1
  23   14   15 1
  24   14   32 1
  25   14   33 1
  26   15   16 1
  27   15   34 1
  28   15   35 1
  29   16   17 1
  30   16   36 1
  31   16   37 1
  32   17   38 1
  33   17   39 1
  34   18   19 1
  35   19   20 ar
  36   19   21 ar
  37   20   24 ar
  38   20   40 1
  39   21   22 ar
  40   21   41 1
  41   22   23 ar
  42   22   42 1
  43   23   24 ar
  44   23   25 1
  45   24   43 1
  46   25   26 1
  47   26   44 1
  48   26   45 1
  49   26   46 1

#	End of record

