#	Name: ASD01912345
#	Creating user name:	WinNT
#	Creation time:	15. 06. 2019 19:59

#	Modifying user name:	WinNT
#	Modification time:	15. 06. 2019 19:59

#	Program:	/corina/corina34_cracker 3.40 0067  02.08.2006

@<TRIPOS>MOLECULE
ASD01912345
  57   60    0    0    0
SMALL
NO_CHARGES


@<TRIPOS>ATOM
   1 C1             3.7644    -4.8013     0.0185 C.ar    
   2 N2             4.3843    -4.1267     0.9781 N.ar    
   3 C3             4.3702    -2.8073     0.9965 C.ar    
   4 C4             3.6880    -2.1209    -0.0166 C.ar    
   5 C5             3.0467    -2.8713    -1.0108 C.ar    
   6 N6             3.1078    -4.1885    -0.9579 N.ar    
   7 C7             3.6456    -0.6460    -0.0357 C.2     
   8 O8             2.5797    -0.0698    -0.1368 O.2     
   9 N9             4.7883     0.0623     0.0590 N.am    
  10 C10            6.0714    -0.6219     0.2646 C.3     
  11 C11            7.0199    -0.2472    -0.8812 C.3     
  12 C12            7.0117     1.2578    -1.0360 C.2     
  13 C13            5.6797     1.9571    -1.1960 C.3     
  14 C14            4.7654     1.5267    -0.0484 C.3     
  15 C15            8.1498     1.9504    -1.0311 C.2     
  16 C16            8.1219     3.3745    -1.1790 C.1     
  17 C17            8.0990     4.5420    -1.3002 C.1     
  18 C18            8.0711     5.9661    -1.4480 C.ar    
  19 C19            9.2681     6.6881    -1.4422 C.ar    
  20 C20            9.2235     8.0626    -1.5861 C.ar    
  21 C21            7.9855     8.6749    -1.7314 C.ar    
  22 C22            6.8396     7.9006    -1.7284 C.ar    
  23 N23            6.9069     6.5920    -1.5953 N.ar    
  24 C24            5.4952     8.5631    -1.8860 C.3     
  25 N25            3.8085    -6.1799     0.0334 N.3     
  26 C26            3.0683    -6.7424    -1.1033 C.3     
  27 C27            3.2596    -8.2604    -1.1374 C.3     
  28 C28            2.7518    -8.8635     0.1752 C.3     
  29 C29            3.5050    -8.2258     1.3459 C.3     
  30 C30            3.3065    -6.7088     1.3080 C.3     
  31 H31            4.8768    -2.2647     1.7810 H       
  32 H32            2.5101    -2.3792    -1.8085 H       
  33 H33            6.5043    -0.3087     1.2146 H       
  34 H34            5.9135    -1.7004     0.2705 H       
  35 H35            8.0291    -0.5866    -0.6480 H       
  36 H36            6.6801    -0.7131    -1.8062 H       
  37 H37            5.8260     3.0368    -1.1655 H       
  38 H38            5.2286     1.6742    -2.1471 H       
  39 H39            3.7480     1.8626    -0.2486 H       
  40 H40            5.1212     1.9670     0.8831 H       
  41 H41            9.0934     1.4379    -0.9157 H       
  42 H42           10.2140     6.1798    -1.3267 H       
  43 H43           10.1315     8.6473    -1.5851 H       
  44 H44            7.9182     9.7467    -1.8454 H       
  45 H45            5.2391     8.6182    -2.9440 H       
  46 H46            4.7393     7.9808    -1.3590 H       
  47 H47            5.5348     9.5693    -1.4688 H       
  48 H48            2.0083    -6.5123    -0.9961 H       
  49 H49            3.4420    -6.3083    -2.0307 H       
  50 H50            2.6974    -8.6794    -1.9719 H       
  51 H51            4.3180    -8.4912    -1.2585 H       
  52 H52            1.6847    -8.6664     0.2779 H       
  53 H53            2.9258    -9.9396     0.1730 H       
  54 H54            3.1180    -8.6200     2.2856 H       
  55 H55            4.5672    -8.4560     1.2639 H       
  56 H56            3.8533    -6.2503     2.1320 H       
  57 H57            2.2454    -6.4788     1.4039 H       
@<TRIPOS>BOND
   1    1    2 ar
   2    1    6 ar
   3    1   25 1
   4    2    3 ar
   5    3    4 ar
   6    3   31 1
   7    4    5 ar
   8    4    7 1
   9    5    6 ar
  10    5   32 1
  11    7    8 2
  12    7    9 am
  13    9   10 1
  14    9   14 1
  15   10   11 1
  16   10   33 1
  17   10   34 1
  18   11   12 1
  19   11   35 1
  20   11   36 1
  21   12   13 1
  22   12   15 2
  23   13   14 1
  24   13   37 1
  25   13   38 1
  26   14   39 1
  27   14   40 1
  28   15   16 1
  29   15   41 1
  30   16   17 3
  31   17   18 1
  32   18   19 ar
  33   18   23 ar
  34   19   20 ar
  35   19   42 1
  36   20   21 ar
  37   20   43 1
  38   21   22 ar
  39   21   44 1
  40   22   23 ar
  41   22   24 1
  42   24   45 1
  43   24   46 1
  44   24   47 1
  45   25   26 1
  46   25   30 1
  47   26   27 1
  48   26   48 1
  49   26   49 1
  50   27   28 1
  51   27   50 1
  52   27   51 1
  53   28   29 1
  54   28   52 1
  55   28   53 1
  56   29   30 1
  57   29   54 1
  58   29   55 1
  59   30   56 1
  60   30   57 1

#	End of record

