#	Name: ASD02560357
#	Creating user name:	WinNT
#	Creation time:	15. 06. 2019 20:25

#	Modifying user name:	WinNT
#	Modification time:	15. 06. 2019 20:25

#	Program:	/corina/corina34_cracker 3.40 0067  02.08.2006

@<TRIPOS>MOLECULE
ASD02560357
  56   59    0    0    0
SMALL
NO_CHARGES


@<TRIPOS>ATOM
   1 C1             0.0145     1.4252     0.2958 C.2     
   2 C2             0.0197     0.0241     0.1762 C.2     
   3 C3             1.1843    -0.6496     0.0984 C.2     
   4 N4             2.3812     0.0171     0.1340 N.pl3   
   5 C5             2.4110     1.3867     0.2499 C.2     
   6 C6             1.1960     2.1058     0.3328 C.2     
   7 C7             3.6800    -0.4079     0.0746 C.2     
   8 C8             4.4651     0.6965     0.1544 C.2     
   9 N9             3.6772     1.7718     0.2599 N.2     
  10 C10            5.9718     0.7087     0.1289 C.3     
  11 N11            4.1172    -1.7327    -0.0453 N.3     
  12 C12            2.9941    -2.6712     0.0808 C.3     
  13 C13            2.3133    -2.8376    -1.2793 C.3     
  14 C14            6.4550     1.5369    -1.0634 C.3     
  15 C15            6.4989     1.3260     1.4258 C.3     
  16 C16            3.5145    -4.0278     0.5600 C.3     
  17 C17            2.3448    -5.0053     0.6914 C.3     
  18 C18            1.6640    -5.1717    -0.6687 C.3     
  19 C19            1.1436    -3.8151    -1.1479 C.3     
  20 O20            1.2055     3.4599     0.4482 O.3     
  21 C21            0.1450     5.6008     0.6496 C.ar    
  22 C22            0.2192     6.3847    -0.4865 C.ar    
  23 C23            0.4042     7.7500    -0.3733 C.ar    
  24 C24            0.5146     8.3313     0.8760 C.ar    
  25 C25            0.4395     7.5474     2.0121 C.ar    
  26 C26            0.2559     6.1820     1.8989 C.ar    
  27 C27           -0.0629     4.1133     0.5264 C.3     
  28 H28           -0.9215     1.9608     0.3536 H       
  29 H29           -0.9154    -0.5154     0.1468 H       
  30 H30            1.1743    -1.7258     0.0075 H       
  31 H31            6.3419    -0.3123     0.0358 H       
  32 H32            4.6102    -1.8735    -0.9144 H       
  33 H33            2.2751    -2.2825     0.8019 H       
  34 H34            1.9426    -1.8711    -1.6207 H       
  35 H35            3.0324    -3.2263    -2.0004 H       
  36 H36            7.5448     1.5458    -1.0818 H       
  37 H37            6.0795     1.0972    -1.9873 H       
  38 H38            6.0849     2.5579    -0.9703 H       
  39 H39            6.1547     0.7359     2.2752 H       
  40 H40            7.5887     1.3348     1.4073 H       
  41 H41            6.1288     2.3470     1.5189 H       
  42 H42            4.2336    -4.4165    -0.1611 H       
  43 H43            3.9995    -3.9093     1.5289 H       
  44 H44            2.7156    -5.9718     1.0328 H       
  45 H45            1.6258    -4.6166     1.4125 H       
  46 H46            2.3831    -5.5604    -1.3898 H       
  47 H47            0.8307    -5.8681    -0.5751 H       
  48 H48            0.4246    -3.4264    -0.4268 H       
  49 H49            0.6586    -3.9336    -2.1168 H       
  50 H50            0.1329     5.9306    -1.4625 H       
  51 H51            0.4628     8.3624    -1.2610 H       
  52 H52            0.6598     9.3978     0.9644 H       
  53 H53            0.5265     8.0015     2.9882 H       
  54 H54            0.1980     5.5695     2.7866 H       
  55 H55           -0.6376     3.9002    -0.3749 H       
  56 H56           -0.6061     3.7489     1.3984 H       
@<TRIPOS>BOND
   1    1    2 1
   2    1    6 2
   3    1   28 1
   4    2    3 2
   5    2   29 1
   6    3    4 1
   7    3   30 1
   8    4    5 1
   9    4    7 1
  10    5    6 1
  11    5    9 2
  12    6   20 1
  13    7    8 2
  14    7   11 1
  15    8    9 1
  16    8   10 1
  17   10   14 1
  18   10   15 1
  19   10   31 1
  20   11   12 1
  21   11   32 1
  22   12   16 1
  23   12   13 1
  24   12   33 1
  25   13   19 1
  26   13   34 1
  27   13   35 1
  28   14   36 1
  29   14   37 1
  30   14   38 1
  31   15   39 1
  32   15   40 1
  33   15   41 1
  34   16   17 1
  35   16   42 1
  36   16   43 1
  37   17   18 1
  38   17   44 1
  39   17   45 1
  40   18   19 1
  41   18   46 1
  42   18   47 1
  43   19   48 1
  44   19   49 1
  45   20   27 1
  46   21   22 ar
  47   21   26 ar
  48   21   27 1
  49   22   23 ar
  50   22   50 1
  51   23   24 ar
  52   23   51 1
  53   24   25 ar
  54   24   52 1
  55   25   26 ar
  56   25   53 1
  57   26   54 1
  58   27   55 1
  59   27   56 1

#	End of record

