#	Name: ASD08070111
#	Creating user name:	WinNT
#	Creation time:	15. 06. 2019 21:14

#	Modifying user name:	WinNT
#	Modification time:	15. 06. 2019 21:14

#	Program:	/corina/corina34_cracker 3.40 0067  02.08.2006

@<TRIPOS>MOLECULE
ASD08070111
  52   53    0    0    0
SMALL
NO_CHARGES


@<TRIPOS>ATOM
   1 C1            -0.0167     1.3778     0.0096 C.ar    
   2 C2             0.0021    -0.0041     0.0020 C.ar    
   3 C3             1.1747     2.0889     0.0021 C.ar    
   4 C4             2.3847     1.4121    -0.0131 C.ar    
   5 C5             2.4009     0.0261    -0.0207 C.ar    
   6 C6             1.2064    -0.6808    -0.0126 C.ar    
   7 C7             1.2233    -2.1877    -0.0209 C.3     
   8 C8             1.5420    -4.0063     1.5691 C.2     
   9 N9             1.4820    -2.6806     1.3343 N.am    
  10 C10            1.8059    -4.5091     2.9515 C.2     
  11 O11            1.1556     3.4478     0.0091 O.3     
  12 N12            1.8659    -5.8349     3.1864 N.am    
  13 C13           -0.1265     4.0785     0.0242 C.3     
  14 C14            2.1246    -6.3278     4.5415 C.3     
  15 C15            0.0526     5.5980     0.0302 C.3     
  16 O16            3.5852    -0.6402    -0.0360 O.3     
  17 C17            4.7749     0.1515    -0.0436 C.3     
  18 O18            1.3816    -4.7918     0.6581 O.2     
  19 O19            1.9663    -3.7237     3.8625 O.2     
  20 C20            2.1417    -7.8577     4.5331 C.3     
  21 C21            2.4079    -8.3647     5.9271 C.ar    
  22 N22            3.4792    -7.9536     6.5766 N.ar    
  23 C23            3.7524    -8.3703     7.7976 C.ar    
  24 C24            2.9170    -9.2612     8.4440 C.ar    
  25 C25            1.7803    -9.7160     7.7926 C.ar    
  26 C26            1.5231    -9.2510     6.5122 C.ar    
  27 C27            3.2373    -9.7330     9.8389 C.3     
  28 H28           -0.9595     1.9045     0.0169 H       
  29 H29           -0.9263    -0.5559     0.0079 H       
  30 H30            3.3131     1.9639    -0.0194 H       
  31 H31            0.2583    -2.5599    -0.3648 H       
  32 H32            2.0079    -2.5386    -0.6911 H       
  33 H33            1.6102    -2.0527     2.0625 H       
  34 H34            1.7377    -6.4628     2.4582 H       
  35 H35           -0.6877     3.7823    -0.8621 H       
  36 H36           -0.6710     3.7733     0.9178 H       
  37 H37            3.0896    -5.9555     4.8854 H       
  38 H38            1.3400    -5.9769     5.2118 H       
  39 H39            0.5971     5.9031    -0.8634 H       
  40 H40           -0.9254     6.0791     0.0417 H       
  41 H41            0.6137     5.8942     0.9165 H       
  42 H42            5.6466    -0.5027    -0.0557 H       
  43 H43            4.7839     0.7853    -0.9303 H       
  44 H44            4.8015     0.7758     0.8495 H       
  45 H45            1.1767    -8.2300     4.1892 H       
  46 H46            2.9264    -8.2086     3.8629 H       
  47 H47            4.6396    -8.0114     8.2981 H       
  48 H48            1.1094   -10.4128     8.2729 H       
  49 H49            0.6470    -9.5836     5.9754 H       
  50 H50            2.7778    -9.0614    10.5641 H       
  51 H51            2.8478   -10.7413     9.9798 H       
  52 H52            4.3178    -9.7377     9.9818 H       
@<TRIPOS>BOND
   1    1    2 ar
   2    1    3 ar
   3    1   28 1
   4    2    6 ar
   5    2   29 1
   6    3    4 ar
   7    3   11 1
   8    4    5 ar
   9    4   30 1
  10    5    6 ar
  11    5   16 1
  12    6    7 1
  13    7    9 1
  14    7   31 1
  15    7   32 1
  16    8   10 1
  17    8    9 am
  18    8   18 2
  19    9   33 1
  20   10   12 am
  21   10   19 2
  22   11   13 1
  23   12   14 1
  24   12   34 1
  25   13   15 1
  26   13   35 1
  27   13   36 1
  28   14   20 1
  29   14   37 1
  30   14   38 1
  31   15   39 1
  32   15   40 1
  33   15   41 1
  34   16   17 1
  35   17   42 1
  36   17   43 1
  37   17   44 1
  38   20   21 1
  39   20   45 1
  40   20   46 1
  41   21   22 ar
  42   21   26 ar
  43   22   23 ar
  44   23   24 ar
  45   23   47 1
  46   24   25 ar
  47   24   27 1
  48   25   26 ar
  49   25   48 1
  50   26   49 1
  51   27   50 1
  52   27   51 1
  53   27   52 1

#	End of record

