#	Name: ASD01150521
#	Creating user name:	WinNT
#	Creation time:	15. 06. 2019 19:04

#	Modifying user name:	WinNT
#	Modification time:	15. 06. 2019 19:04

#	Program:	/corina/corina34_cracker 3.40 0067  02.08.2006

@<TRIPOS>MOLECULE
ASD01150521
  54   57    0    0    0
SMALL
NO_CHARGES


@<TRIPOS>ATOM
   1 C1             1.9144     1.4015     0.9688 C.ar    
   2 C2             1.9596     0.0213     0.9430 C.ar    
   3 C3             0.4927     0.0046    -0.9573 C.ar    
   4 C4             0.4446     1.3911    -0.9341 C.ar    
   5 C5             1.1564     2.0910     0.0299 C.ar    
   6 N6             1.1106     3.4892     0.0568 N.am    
   7 C7            -0.0779     4.1147    -0.0077 C.2     
   8 N8            -0.1589     5.4581     0.0162 N.am    
   9 C9             0.9637     6.2013     0.1061 C.2     
  10 C10            2.2668     5.5231     0.1771 C.2     
  11 N11            2.3024     4.2168     0.1564 N.2     
  12 O12            0.8988     7.4163     0.1279 O.2     
  13 C13           -1.4669     6.1139    -0.0561 C.3     
  14 O14           -1.0968     3.4557    -0.0895 O.2     
  15 C15           -2.0091     6.3080     1.3366 C.ar    
  16 O16            3.4152     6.2432     0.2677 O.3     
  17 C17            4.6387     5.5077     0.3322 C.3     
  18 C18            1.2519    -0.6785    -0.0157 C.ar    
  19 C19           -1.7252     7.4669     2.0351 C.ar    
  20 C20           -2.2173     7.6479     3.3111 C.ar    
  21 C21           -3.0041     6.6629     3.9051 C.ar    
  22 C22           -3.2886     5.5040     3.1922 C.ar    
  23 C23           -2.7966     5.3292     1.9161 C.ar    
  24 N24           -0.2232    -0.7049    -1.9279 N.am    
  25 C25            0.2667    -1.8622    -2.4148 C.2     
  26 O26            1.3685    -2.2429    -2.0799 O.2     
  27 C27           -0.5545    -2.6831    -3.3755 C.3     
  28 N28           -3.5914     6.6257     5.1759 N.3     
  29 C29           -4.6591     5.6024     5.1523 C.3     
  30 C30           -4.1663     4.6248     4.0607 C.3     
  31 C31           -4.1310     7.9412     5.5451 C.3     
  32 H32            2.4650     1.9454     1.7220 H       
  33 H33            2.5496    -0.5122     1.6735 H       
  34 H34           -0.1452     1.9245    -1.6648 H       
  35 H35           -1.3609     7.0833    -0.5430 H       
  36 H36           -2.1539     5.4921    -0.6301 H       
  37 H37            5.4764     6.2015     0.4020 H       
  38 H38            4.6282     4.8613     1.2098 H       
  39 H39            4.7447     4.8993    -0.5659 H       
  40 H40            1.2893    -1.7577    -0.0331 H       
  41 H41           -1.1154     8.2334     1.5800 H       
  42 H42           -1.9919     8.5554     3.8513 H       
  43 H43           -3.0192     4.4235     1.3716 H       
  44 H44           -1.0721    -0.3638    -2.2503 H       
  45 H45           -1.5071    -2.1853    -3.5565 H       
  46 H46           -0.0149    -2.7885    -4.3166 H       
  47 H47           -0.7354    -3.6694    -2.9480 H       
  48 H48           -4.7340     5.0995     6.1165 H       
  49 H49           -5.6141     6.0463     4.8712 H       
  50 H50           -5.0057     4.2313     3.4876 H       
  51 H51           -3.5851     3.8149     4.5017 H       
  52 H52           -4.8871     8.2405     4.8193 H       
  53 H53           -4.5812     7.8841     6.5361 H       
  54 H54           -3.3252     8.6751     5.5538 H       
@<TRIPOS>BOND
   1    1    2 ar
   2    1    5 ar
   3    1   32 1
   4    2   18 ar
   5    2   33 1
   6    3    4 ar
   7    3   24 1
   8    3   18 ar
   9    4    5 ar
  10    4   34 1
  11    5    6 1
  12    6    7 am
  13    6   11 1
  14    7    8 am
  15    7   14 2
  16    8    9 am
  17    8   13 1
  18    9   10 1
  19    9   12 2
  20   10   11 2
  21   10   16 1
  22   13   15 1
  23   13   35 1
  24   13   36 1
  25   15   19 ar
  26   15   23 ar
  27   16   17 1
  28   17   37 1
  29   17   38 1
  30   17   39 1
  31   18   40 1
  32   19   20 ar
  33   19   41 1
  34   20   21 ar
  35   20   42 1
  36   21   22 ar
  37   21   28 1
  38   22   23 ar
  39   22   30 1
  40   23   43 1
  41   24   25 am
  42   24   44 1
  43   25   26 2
  44   25   27 1
  45   27   45 1
  46   27   46 1
  47   27   47 1
  48   28   29 1
  49   28   31 1
  50   29   30 1
  51   29   48 1
  52   29   49 1
  53   30   50 1
  54   30   51 1
  55   31   52 1
  56   31   53 1
  57   31   54 1

#	End of record

