#	Name: ASD01880063
#	Creating user name:	WinNT
#	Creation time:	15. 06. 2019 19:39

#	Modifying user name:	WinNT
#	Modification time:	15. 06. 2019 19:39

#	Program:	/corina/corina34_cracker 3.40 0067  02.08.2006

@<TRIPOS>MOLECULE
ASD01880063
  48   50    0    0    0
SMALL
NO_CHARGES


@<TRIPOS>ATOM
   1 C1             0.0612     1.5224     0.2329 C.ar    
   2 C2             0.1954     0.1514     0.3416 C.ar    
   3 N3             1.3847    -0.4009     0.4829 N.ar    
   4 C4             2.4852     0.3241     0.5256 C.ar    
   5 C5             2.4290     1.7014     0.4227 C.ar    
   6 C6             1.1964     2.3178     0.2736 C.ar    
   7 C7             3.6917     2.5224     0.4729 C.3     
   8 N8             4.2191     2.6907    -0.8835 N.am    
   9 C9             3.7405     3.7212    -1.6960 C.ar    
  10 S10            5.3825     1.6593    -1.4535 S.o2    
  11 C11            4.4505     0.3092    -2.2278 C.3     
  12 C12            5.4149    -0.6111    -2.9786 C.3     
  13 O13            6.0717     2.4179    -2.4377 O.2     
  14 O14            6.0469     1.2001    -0.2844 O.2     
  15 C15            3.1952     4.8632    -1.1231 C.ar    
  16 C16            2.7234     5.8803    -1.9294 C.ar    
  17 C17            2.7934     5.7629    -3.3055 C.ar    
  18 C18            3.3357     4.6275    -3.8790 C.ar    
  19 C19            3.8141     3.6088    -3.0786 C.ar    
  20 C20            2.2772     6.8747    -4.1821 C.3     
  21 C21            3.4298     7.5167    -4.9103 C.ar    
  22 C22            3.7915     8.8190    -4.6202 C.ar    
  23 C23            4.8487     9.4079    -5.2882 C.ar    
  24 C24            5.5447     8.6943    -6.2461 C.ar    
  25 C25            5.1836     7.3917    -6.5355 C.ar    
  26 C26            4.1291     6.8014    -5.8644 C.ar    
  27 F27            1.3708     6.3532    -5.1114 F       
  28 H28           -0.9151     1.9684     0.1134 H       
  29 H29           -0.6838    -0.4751     0.3109 H       
  30 H30            3.4416    -0.1639     0.6426 H       
  31 H31            1.1219     3.3921     0.1907 H       
  32 H32            3.4724     3.5004     0.9014 H       
  33 H33            4.4320     2.0131     1.0899 H       
  34 H34            3.9294    -0.2605    -1.4584 H       
  35 H35            3.7246     0.7234    -2.9275 H       
  36 H36            4.8549    -1.4223    -3.4439 H       
  37 H37            5.9361    -0.0414    -3.7480 H       
  38 H38            6.1408    -1.0253    -2.2789 H       
  39 H39            3.1399     4.9553    -0.0485 H       
  40 H40            2.2990     6.7683    -1.4847 H       
  41 H41            3.3889     4.5390    -4.9541 H       
  42 H42            4.2378     2.7224    -3.5271 H       
  43 H43            1.7762     7.6209    -3.5653 H       
  44 H44            3.2477     9.3765    -3.8719 H       
  45 H45            5.1308    10.4255    -5.0621 H       
  46 H46            6.3702     9.1546    -6.7685 H       
  47 H47            5.7271     6.8343    -7.2841 H       
  48 H48            3.8470     5.7837    -6.0905 H       
@<TRIPOS>BOND
   1    1    2 ar
   2    1    6 ar
   3    1   28 1
   4    2    3 ar
   5    2   29 1
   6    3    4 ar
   7    4    5 ar
   8    4   30 1
   9    5    6 ar
  10    5    7 1
  11    6   31 1
  12    7    8 1
  13    7   32 1
  14    7   33 1
  15    8    9 1
  16    8   10 am
  17    9   15 ar
  18    9   19 ar
  19   10   11 1
  20   10   13 2
  21   10   14 2
  22   11   12 1
  23   11   34 1
  24   11   35 1
  25   12   36 1
  26   12   37 1
  27   12   38 1
  28   15   16 ar
  29   15   39 1
  30   16   17 ar
  31   16   40 1
  32   17   18 ar
  33   17   20 1
  34   18   19 ar
  35   18   41 1
  36   19   42 1
  37   20   21 1
  38   20   27 1
  39   20   43 1
  40   21   22 ar
  41   21   26 ar
  42   22   23 ar
  43   22   44 1
  44   23   24 ar
  45   23   45 1
  46   24   25 ar
  47   24   46 1
  48   25   26 ar
  49   25   47 1
  50   26   48 1

#	End of record

