#	Name: ASD05380066
#	Creating user name:	WinNT
#	Creation time:	15. 06. 2019 20:59

#	Modifying user name:	WinNT
#	Modification time:	15. 06. 2019 20:59

#	Program:	/corina/corina34_cracker 3.40 0067  02.08.2006

@<TRIPOS>MOLECULE
ASD05380066
  49   53    0    0    0
SMALL
NO_CHARGES


@<TRIPOS>ATOM
   1 C1            -0.2265     1.5762    -0.3889 C.ar    
   2 C2            -0.0888     0.1888    -0.6182 C.ar    
   3 C3             0.7586     2.4574    -0.8291 C.ar    
   4 C4             1.8645     1.9655    -1.4878 C.ar    
   5 C5             2.0028     0.6028    -1.7152 C.ar    
   6 C6             1.0411    -0.2851    -1.2874 C.ar    
   7 N7            -1.0604    -0.6504    -0.1801 N.2     
   8 C8            -2.1106    -0.2095     0.4430 C.2     
   9 N9            -2.3255     1.1079     0.7067 N.am    
  10 C10           -1.4244     2.0426     0.3243 C.2     
  11 C11           -3.4868     1.4997     1.3846 C.ar    
  12 C12           -4.6416     1.7958     0.6725 C.ar    
  13 C13           -3.4874     1.5873     2.7704 C.ar    
  14 C14           -4.6343     1.9735     3.4360 C.ar    
  15 C15           -5.7814     2.2723     2.7238 C.ar    
  16 C16           -5.7853     2.1814     1.3439 C.ar    
  17 C17           -3.1445    -1.2076     0.8970 C.3     
  18 N18           -3.2460    -2.2876    -0.0877 N.pl3   
  19 C19           -4.4161    -3.0187    -0.1947 C.ar    
  20 N20           -5.4572    -2.7542     0.5880 N.ar    
  21 O21           -1.6036     3.2246     0.5535 O.2     
  22 C22           -4.5332    -4.0541    -1.1372 C.ar    
  23 C23           -5.7460    -4.7612    -1.1989 C.ar    
  24 N24           -6.7305    -4.4282    -0.3708 N.ar    
  25 C25           -6.5776    -3.4465     0.4930 C.ar    
  26 N26           -3.7127    -4.5864    -2.0747 N.2     
  27 C27           -4.3296    -5.5514    -2.6927 C.2     
  28 N28           -5.5875    -5.6983    -2.1884 N.pl3   
  29 C29           -2.7323    -1.7888     2.2509 C.3     
  30 C30            0.6157     3.9380    -0.5871 C.3     
  31 F31            1.7240     4.6065    -1.1182 F       
  32 F32           -0.5496     4.4015    -1.2072 F       
  33 F33            0.5399     4.1805     0.7886 F       
  34 H34            2.6301     2.6458    -1.8305 H       
  35 H35            2.8757     0.2345    -2.2338 H       
  36 H36            1.1599    -1.3430    -1.4694 H       
  37 H37           -4.6453     1.7249    -0.4051 H       
  38 H38           -2.5921     1.3534     3.3273 H       
  39 H39           -4.6355     2.0418     4.5138 H       
  40 H40           -6.6772     2.5734     3.2465 H       
  41 H41           -6.6826     2.4158     0.7904 H       
  42 H42           -4.1104    -0.7118     0.9933 H       
  43 H43           -2.4930    -2.4902    -0.6646 H       
  44 H44           -7.3991    -3.1985     1.1487 H       
  45 H45           -3.9072    -6.1478    -3.4878 H       
  46 H46           -6.2490    -6.3468    -2.4759 H       
  47 H47           -2.5657    -0.9773     2.9592 H       
  48 H48           -3.5238    -2.4392     2.6232 H       
  49 H49           -1.8138    -2.3641     2.1348 H       
@<TRIPOS>BOND
   1    1    2 ar
   2    1    3 ar
   3    1   10 1
   4    2    7 1
   5    2    6 ar
   6    3    4 ar
   7    3   30 1
   8    4    5 ar
   9    4   34 1
  10    5    6 ar
  11    5   35 1
  12    6   36 1
  13    7    8 2
  14    8    9 1
  15    8   17 1
  16    9   10 am
  17    9   11 1
  18   10   21 2
  19   11   12 ar
  20   11   13 ar
  21   12   16 ar
  22   12   37 1
  23   13   14 ar
  24   13   38 1
  25   14   15 ar
  26   14   39 1
  27   15   16 ar
  28   15   40 1
  29   16   41 1
  30   17   18 1
  31   17   29 1
  32   17   42 1
  33   18   19 1
  34   18   43 1
  35   19   20 ar
  36   19   22 ar
  37   20   25 ar
  38   22   23 ar
  39   22   26 1
  40   23   24 ar
  41   23   28 1
  42   24   25 ar
  43   25   44 1
  44   26   27 2
  45   27   28 1
  46   27   45 1
  47   28   46 1
  48   29   47 1
  49   29   48 1
  50   29   49 1
  51   30   31 1
  52   30   32 1
  53   30   33 1

#	End of record

