#	Name: ASD05740266
#	Creating user name:	WinNT
#	Creation time:	15. 06. 2019 21:03

#	Modifying user name:	WinNT
#	Modification time:	15. 06. 2019 21:03

#	Program:	/corina/corina34_cracker 3.40 0067  02.08.2006

@<TRIPOS>MOLECULE
ASD05740266
  51   54    0    0    0
SMALL
NO_CHARGES


@<TRIPOS>ATOM
   1 C1            -2.1720     5.0303    -1.2646 C.ar    
   2 C2            -3.2919     5.5328    -1.9631 C.ar    
   3 C3            -4.4812     4.7955    -1.9496 C.ar    
   4 N4            -4.5073     3.6561    -1.2818 N.ar    
   5 C5            -3.4346     3.2128    -0.6353 C.ar    
   6 N6            -2.2865     3.8739    -0.6244 N.ar    
   7 C7            -5.9240     2.0797     0.2550 C.ar    
   8 C8            -4.7472     1.3503     0.1483 C.ar    
   9 C9            -7.1355     1.4249     0.3539 C.ar    
  10 C10           -7.1771     0.0367     0.3468 C.ar    
  11 C11           -6.0001    -0.6927     0.2401 C.ar    
  12 C12           -4.7887    -0.0377     0.1411 C.ar    
  13 N13           -0.9986     5.7395    -1.2677 N.am    
  14 C14           -0.8982     6.9078    -1.9261 C.2     
  15 C15           -1.9852     7.4549    -2.6394 C.2     
  16 C16           -3.1763     6.8013    -2.6763 C.2     
  17 N17           -3.5182     2.0148     0.0474 N.pl3   
  18 N18           -8.4050    -0.6270     0.4475 N.3     
  19 C19           -8.2195    -2.0846     0.4203 C.3     
  20 C20           -9.5733    -2.7721     0.6123 C.3     
  21 N21          -10.4936    -2.3413    -0.4494 N.3     
  22 C22          -10.6790    -0.8838    -0.4221 C.3     
  23 C23           -9.3252    -0.1962    -0.6141 C.3     
  24 C24          -11.7824    -3.0381    -0.3436 C.3     
  25 C25            0.1624     5.2173    -0.5427 C.3     
  26 C26            0.9896     4.3305    -1.4757 C.3     
  27 O27            0.1609     7.5106    -1.9057 O.2     
  28 Br28          -1.7847     9.1019    -3.5466 Br      
  29 H29           -5.3572     5.1499    -2.4726 H       
  30 H30           -5.8913     3.1592     0.2650 H       
  31 H31           -8.0508     1.9921     0.4372 H       
  32 H32           -6.0324    -1.7722     0.2342 H       
  33 H33           -3.8734    -0.6049     0.0578 H       
  34 H34           -4.0158     7.2101    -3.2190 H       
  35 H35           -2.7257     1.6336     0.4569 H       
  36 H36           -7.7948    -2.3793    -0.5394 H       
  37 H37           -7.5443    -2.3803     1.2232 H       
  38 H38           -9.4423    -3.8532     0.5635 H       
  39 H39           -9.9853    -2.4990     1.5837 H       
  40 H40          -11.3542    -0.5880    -1.2250 H       
  41 H41          -11.1037    -0.5891     0.5376 H       
  42 H42           -9.4562     0.8848    -0.5653 H       
  43 H43           -8.9132    -0.4694    -1.5856 H       
  44 H44          -12.2362    -2.8181     0.6228 H       
  45 H45          -12.4444    -2.7006    -1.1411 H       
  46 H46          -11.6231    -4.1126    -0.4340 H       
  47 H47            0.7756     6.0476    -0.1924 H       
  48 H48           -0.1762     4.6302     0.3109 H       
  49 H49            1.3283     4.9176    -2.3293 H       
  50 H50            1.8535     3.9420    -0.9363 H       
  51 H51            0.3764     3.5003    -1.8260 H       
@<TRIPOS>BOND
   1    1    2 ar
   2    1   13 1
   3    1    6 ar
   4    2    3 ar
   5    2   16 1
   6    3    4 ar
   7    3   29 1
   8    4    5 ar
   9    5    6 ar
  10    5   17 1
  11    7    8 ar
  12    7    9 ar
  13    7   30 1
  14    8   17 1
  15    8   12 ar
  16    9   10 ar
  17    9   31 1
  18   10   11 ar
  19   10   18 1
  20   11   12 ar
  21   11   32 1
  22   12   33 1
  23   13   14 am
  24   13   25 1
  25   14   15 1
  26   14   27 2
  27   15   16 2
  28   15   28 1
  29   16   34 1
  30   17   35 1
  31   18   19 1
  32   18   23 1
  33   19   20 1
  34   19   36 1
  35   19   37 1
  36   20   21 1
  37   20   38 1
  38   20   39 1
  39   21   22 1
  40   21   24 1
  41   22   23 1
  42   22   40 1
  43   22   41 1
  44   23   42 1
  45   23   43 1
  46   24   44 1
  47   24   45 1
  48   24   46 1
  49   25   26 1
  50   25   47 1
  51   25   48 1
  52   26   49 1
  53   26   50 1
  54   26   51 1

#	End of record

