#	Name: ASD00840439
#	Creating user name:	WinNT
#	Creation time:	15. 06. 2019 18:38

#	Modifying user name:	WinNT
#	Modification time:	15. 06. 2019 18:38

#	Program:	/corina/corina34_cracker 3.40 0067  02.08.2006

@<TRIPOS>MOLECULE
ASD00840439
  92   97    0    0    0
SMALL
NO_CHARGES


@<TRIPOS>ATOM
   1 F1            -0.1185    -3.1613     4.7121 F       
   2 N2            -0.0147     1.3153     0.0242 N.ar    
   3 C3             0.0025    -0.0070     0.0104 C.ar    
   4 C4             1.2069    -0.6991    -0.0071 C.ar    
   5 C5             2.3930     0.0137    -0.0099 C.ar    
   6 C6             2.3320     1.4006     0.0049 C.ar    
   7 C7             1.0996     2.0223     0.0219 C.ar    
   8 C8             1.2216    -2.2060    -0.0223 C.3     
   9 C9             0.4763    -2.7314    -1.2307 C.2     
  10 N10            2.5991    -2.7046    -0.0121 N.am    
  11 C11            3.4466    -2.3635    -1.0029 C.2     
  12 N12            4.7401    -2.7371    -0.9417 N.am    
  13 O13            3.0443    -1.7187    -1.9520 O.2     
  14 C14            5.6552    -2.4758    -2.0632 C.3     
  15 C15            6.9058    -1.7777    -1.5184 C.3     
  16 N16            7.4742    -2.5798    -0.4269 N.3     
  17 C17            6.5397    -2.6818     0.7019 C.3     
  18 C18            5.2755    -3.4114     0.2507 C.3     
  19 C19            8.7676    -2.0358     0.0079 C.3     
  20 C20            9.2692    -2.8188     1.2244 C.3     
  21 C21           10.6444    -2.2877     1.6352 C.3     
  22 N22           11.5822    -2.4354     0.5148 N.3     
  23 C23           11.1459    -1.6540    -0.6494 C.3     
  24 C24            9.7856    -2.1662    -1.1284 C.3     
  25 C25           12.9455    -2.0642     0.9170 C.3     
  26 O26            0.7574    -2.5313    -2.3935 O.2     
  27 N27           -0.5548    -3.4614    -0.7732 N.am    
  28 C28            0.4480    -2.7549     1.1545 C.ar    
  29 C29           -0.6000    -3.4954     0.6222 C.ar    
  30 C30            0.6118    -2.6409     2.5168 C.ar    
  31 C31           -0.2758    -3.2701     3.3747 C.ar    
  32 C32           -1.3259    -4.0121     2.8556 C.ar    
  33 C33           -1.4899    -4.1262     1.4885 C.ar    
  34 F34           -2.1926    -4.6264     3.6904 F       
  35 C35           -1.0191    -5.8487    -2.0614 C.ar    
  36 C36            0.1589    -6.0110    -2.7756 C.ar    
  37 C37           -1.6969    -6.9559    -1.5885 C.ar    
  38 C38           -1.2018    -8.2246    -1.8261 C.ar    
  39 C39           -0.0276    -8.3890    -2.5379 C.ar    
  40 C40            0.6535    -7.2854    -3.0132 C.ar    
  41 H41            0.3571    -9.3811    -2.7222 H       
  42 O42            0.8273    -4.9236    -3.2423 O.3     
  43 C43            2.0333    -5.1661    -3.9694 C.3     
  44 C44            2.6396    -3.8325    -4.4108 C.3     
  45 C45           13.9288    -2.4630    -0.1852 C.3     
  46 S46           -1.6466    -4.2317    -1.7514 S.o2    
  47 O47           -2.8276    -4.4008    -0.9794 O.2     
  48 O48           -1.6232    -3.5467    -2.9961 O.2     
  49 O49           -1.1673    -0.6942     0.0138 O.3     
  50 C50           -3.5778    -0.8662     0.0336 C.3     
  51 C51           -2.3715     0.0749     0.0325 C.3     
  52 H52            3.3444    -0.4972    -0.0230 H       
  53 H53            3.2391     1.9868     0.0035 H       
  54 H54            1.0467     3.1009     0.0331 H       
  55 H55            2.9011    -3.2803     0.7078 H       
  56 H56            5.9371    -3.4181    -2.5329 H       
  57 H57            5.1650    -1.8317    -2.7933 H       
  58 H58            7.6418    -1.6754    -2.3159 H       
  59 H59            6.6368    -0.7906    -1.1424 H       
  60 H60            7.0101    -3.2351     1.5147 H       
  61 H61            6.2757    -1.6821     1.0470 H       
  62 H62            4.5346    -3.3887     1.0498 H       
  63 H63            5.5181    -4.4445     0.0018 H       
  64 H64            8.6500    -0.9853     0.2741 H       
  65 H65            8.5695    -2.6948     2.0508 H       
  66 H66            9.3485    -3.8756     0.9695 H       
  67 H67           10.5618    -1.2344     1.9032 H       
  68 H68           11.0108    -2.8527     2.4923 H       
  69 H69           11.0608    -0.6037    -0.3707 H       
  70 H70           11.8764    -1.7587    -1.4516 H       
  71 H71            9.8730    -3.2127    -1.4203 H       
  72 H72            9.4548    -1.5758    -1.9829 H       
  73 H73           12.9965    -0.9872     1.0772 H       
  74 H74           13.2054    -2.5816     1.8405 H       
  75 H75            1.4315    -2.0621     2.9162 H       
  76 H76           -2.3101    -4.7053     1.0907 H       
  77 H77           -2.6141    -6.8301    -1.0324 H       
  78 H78           -1.7327    -9.0887    -1.4550 H       
  79 H79            1.5701    -7.4144    -3.5696 H       
  80 H80            2.7422    -5.6941    -3.3317 H       
  81 H81            1.8124    -5.7731    -4.8474 H       
  82 H82            1.9307    -3.3044    -5.0486 H       
  83 H83            2.8605    -3.2255    -3.5329 H       
  84 H84            3.5595    -4.0174    -4.9655 H       
  85 H85           14.9403    -2.1876     0.1132 H       
  86 H86           13.8778    -3.5399    -0.3454 H       
  87 H87           13.6688    -1.9456    -1.1087 H       
  88 H88           -3.5563    -1.4856    -0.8630 H       
  89 H89           -3.5403    -1.5040     0.9168 H       
  90 H90           -4.4964    -0.2795     0.0479 H       
  91 H91           -2.3931     0.6943     0.9291 H       
  92 H92           -2.4091     0.7127    -0.8507 H       
@<TRIPOS>BOND
   1    1   31 1
   2    2    3 ar
   3    2    7 ar
   4    3    4 ar
   5    3   49 1
   6    4    5 ar
   7    4    8 1
   8    5    6 ar
   9    5   52 1
  10    6    7 ar
  11    6   53 1
  12    7   54 1
  13    8    9 1
  14    8   10 1
  15    8   28 1
  16    9   26 2
  17    9   27 am
  18   10   11 am
  19   10   55 1
  20   11   12 am
  21   11   13 2
  22   12   14 1
  23   12   18 1
  24   14   15 1
  25   14   56 1
  26   14   57 1
  27   15   16 1
  28   15   58 1
  29   15   59 1
  30   16   17 1
  31   16   19 1
  32   17   18 1
  33   17   60 1
  34   17   61 1
  35   18   62 1
  36   18   63 1
  37   19   20 1
  38   19   24 1
  39   19   64 1
  40   20   21 1
  41   20   65 1
  42   20   66 1
  43   21   22 1
  44   21   67 1
  45   21   68 1
  46   22   23 1
  47   22   25 1
  48   23   24 1
  49   23   69 1
  50   23   70 1
  51   24   71 1
  52   24   72 1
  53   25   45 1
  54   25   73 1
  55   25   74 1
  56   27   46 am
  57   27   29 1
  58   28   29 ar
  59   28   30 ar
  60   29   33 ar
  61   30   31 ar
  62   30   75 1
  63   31   32 ar
  64   32   33 ar
  65   32   34 1
  66   33   76 1
  67   35   36 ar
  68   35   37 ar
  69   35   46 1
  70   36   42 1
  71   36   40 ar
  72   37   38 ar
  73   37   77 1
  74   38   39 ar
  75   38   78 1
  76   39   40 ar
  77   39   41 1
  78   40   79 1
  79   42   43 1
  80   43   44 1
  81   43   80 1
  82   43   81 1
  83   44   82 1
  84   44   83 1
  85   44   84 1
  86   45   85 1
  87   45   86 1
  88   45   87 1
  89   46   47 2
  90   46   48 2
  91   49   51 1
  92   50   51 1
  93   50   88 1
  94   50   89 1
  95   50   90 1
  96   51   91 1
  97   51   92 1

#	End of record

