#	Name: ASD01911679
#	Creating user name:	WinNT
#	Creation time:	15. 06. 2019 19:58

#	Modifying user name:	WinNT
#	Modification time:	15. 06. 2019 19:58

#	Program:	/corina/corina34_cracker 3.40 0067  02.08.2006

@<TRIPOS>MOLECULE
ASD01911679
  44   47    0    0    0
SMALL
NO_CHARGES


@<TRIPOS>ATOM
   1 N1            -0.0161     1.3435     0.0106 N.am    
   2 C2             0.0021    -0.0041     0.0020 C.2     
   3 C3             1.2748    -0.7187    -0.1246 C.2     
   4 C4             1.4470    -2.0747    -0.0500 C.2     
   5 S5             2.8518     0.0159    -0.4072 S.3     
   6 C6             3.5963    -1.5802    -0.3909 C.2     
   7 N7             2.6740    -2.4890    -0.1928 N.2     
   8 C8             4.9923    -1.8438    -0.5711 C.1     
   9 C9             6.1367    -2.0599    -0.7188 C.1     
  10 C10            7.5327    -2.3234    -0.8990 C.ar    
  11 C11            8.0097    -3.6374    -0.8661 C.ar    
  12 C12            9.3552    -3.8832    -1.0409 C.ar    
  13 C13           10.2329    -2.8333    -1.2481 C.ar    
  14 C14            9.7684    -1.5301    -1.2820 C.ar    
  15 C15            8.4248    -1.2686    -1.1146 C.ar    
  16 O16           -1.0388    -0.6274     0.0994 O.2     
  17 C17           -1.2335     2.1963     0.0364 C.3     
  18 C18            1.1746     2.2266     0.0023 C.3     
  19 C19            0.6368     3.6503    -0.0631 C.3     
  20 C20           -0.7369     3.5070     0.6515 C.3     
  21 C21            1.4078     4.7225     0.6780 C.3     
  22 C22            0.6461     6.0443     0.4793 C.3     
  23 C23           -0.7960     5.9414     0.9652 C.3     
  24 C24           -1.5302     4.7561     0.3210 C.3     
  25 H25            0.6236    -2.7534     0.1160 H       
  26 H26            7.3261    -4.4576    -0.7038 H       
  27 H27            9.7252    -4.8975    -1.0157 H       
  28 H28           11.2857    -3.0321    -1.3836 H       
  29 H29           10.4595    -0.7160    -1.4437 H       
  30 H30            8.0638    -0.2511    -1.1412 H       
  31 H31           -1.6067     2.3635    -0.9740 H       
  32 H32           -2.0043     1.7463     0.6621 H       
  33 H33            1.7538     2.0851     0.9148 H       
  34 H34            1.7917     2.0173    -0.8715 H       
  35 H35            0.4887     3.9432    -1.1025 H       
  36 H36           -0.6017     3.3978     1.7276 H       
  37 H37            1.4579     4.4782     1.7391 H       
  38 H38            2.4139     4.8079     0.2673 H       
  39 H39            1.1529     6.8338     1.0342 H       
  40 H40            0.6470     6.2994    -0.5804 H       
  41 H41           -0.7981     5.8117     2.0475 H       
  42 H42           -1.3210     6.8642     0.7182 H       
  43 H43           -1.5745     4.8892    -0.7599 H       
  44 H44           -2.5381     4.6771     0.7285 H       
@<TRIPOS>BOND
   1    1    2 am
   2    1   18 1
   3    1   17 1
   4    2    3 1
   5    2   16 2
   6    3    4 2
   7    3    5 1
   8    4    7 1
   9    4   25 1
  10    5    6 1
  11    6    7 2
  12    6    8 1
  13    8    9 3
  14    9   10 1
  15   10   11 ar
  16   10   15 ar
  17   11   12 ar
  18   11   26 1
  19   12   13 ar
  20   12   27 1
  21   13   14 ar
  22   13   28 1
  23   14   15 ar
  24   14   29 1
  25   15   30 1
  26   17   20 1
  27   17   31 1
  28   17   32 1
  29   18   19 1
  30   18   33 1
  31   18   34 1
  32   19   20 1
  33   19   21 1
  34   19   35 1
  35   20   24 1
  36   20   36 1
  37   21   22 1
  38   21   37 1
  39   21   38 1
  40   22   23 1
  41   22   39 1
  42   22   40 1
  43   23   24 1
  44   23   41 1
  45   23   42 1
  46   24   43 1
  47   24   44 1

#	End of record

