#	Name: ASD01040049
#	Creating user name:	WinNT
#	Creation time:	15. 06. 2019 18:58

#	Modifying user name:	WinNT
#	Modification time:	15. 06. 2019 18:58

#	Program:	/corina/corina34_cracker 3.40 0067  02.08.2006

@<TRIPOS>MOLECULE
ASD01040049
  55   58    0    0    0
SMALL
NO_CHARGES


@<TRIPOS>ATOM
   1 O1            -0.0163     1.3545     0.0095 O.3     
   2 C2             0.0021    -0.0041     0.0020 C.ar    
   3 C3             0.0057    -0.6902    -1.2051 C.ar    
   4 C4             0.0239    -2.0689    -1.2160 C.ar    
   5 C5             0.0392    -2.7740    -0.0132 C.ar    
   6 C6             0.0593    -4.2565    -0.0214 C.2     
   7 C7            -1.0968    -5.0106    -0.5626 C.ar    
   8 C8            -0.9452    -5.7979    -1.7034 C.ar    
   9 C9            -2.0223    -6.4984    -2.2040 C.ar    
  10 C10           -3.2569    -6.4200    -1.5736 C.ar    
  11 O11           -4.3163    -7.1111    -2.0696 O.3     
  12 C12           -3.4110    -5.6373    -0.4372 C.ar    
  13 C13           -2.3366    -4.9386     0.0714 C.ar    
  14 C14            1.1214    -4.9142     0.4599 C.2     
  15 C15            2.3086    -4.1643     1.0224 C.3     
  16 C16            2.6267    -4.7273     2.4116 C.3     
  17 C17            2.8262    -6.2406     2.3131 C.3     
  18 C18            1.5243    -6.9072     1.8654 C.3     
  19 C19            1.7034    -8.4035     1.8555 C.ar    
  20 C20            0.9027    -9.1997     2.6535 C.ar    
  21 C21            1.0651   -10.5715     2.6465 C.ar    
  22 C22            2.0323   -11.1503     1.8377 C.ar    
  23 O23            2.1938   -12.4996     1.8288 O.3     
  24 C24            3.2089   -13.0259     0.9717 C.3     
  25 C25            2.8342   -10.3492     1.0377 C.ar    
  26 C26            2.6643    -8.9783     1.0443 C.ar    
  27 C27            1.1623    -6.4263     0.4610 C.3     
  28 C28            0.0360    -2.0820     1.1973 C.ar    
  29 C29            0.0230    -0.7032     1.2014 C.ar    
  30 H30            0.8616     1.7598     0.0033 H       
  31 H31           -0.0061    -0.1435    -2.1364 H       
  32 H32            0.0260    -2.6021    -2.1553 H       
  33 H33            0.0147    -5.8587    -2.1946 H       
  34 H34           -1.9055    -7.1083    -3.0875 H       
  35 H35           -4.4086    -8.0029    -1.7072 H       
  36 H36           -4.3726    -5.5784     0.0509 H       
  37 H37           -2.4562    -4.3329     0.9576 H       
  38 H38            3.1696    -4.2975     0.3674 H       
  39 H39            2.0672    -3.1044     1.1034 H       
  40 H40            3.5375    -4.2645     2.7915 H       
  41 H41            1.8001    -4.5127     3.0889 H       
  42 H42            3.6108    -6.4542     1.5873 H       
  43 H43            3.1182    -6.6336     3.2869 H       
  44 H44            0.7237    -6.6413     2.5556 H       
  45 H45            0.1498    -8.7487     3.2829 H       
  46 H46            0.4399   -11.1930     3.2705 H       
  47 H47            2.9921   -12.7500    -0.0602 H       
  48 H48            4.1769   -12.6170     1.2614 H       
  49 H49            3.2321   -14.1120     1.0603 H       
  50 H50            3.5881   -10.7974     0.4074 H       
  51 H51            3.2880    -8.3543     0.4214 H       
  52 H52            0.1847    -6.8192     0.1814 H       
  53 H53            1.9152    -6.7727    -0.2469 H       
  54 H54            0.0477    -2.6254     2.1306 H       
  55 H55            0.0245    -0.1666     2.1387 H       
@<TRIPOS>BOND
   1    1    2 1
   2    1   30 1
   3    2   29 ar
   4    2    3 ar
   5    3    4 ar
   6    3   31 1
   7    4    5 ar
   8    4   32 1
   9    5   28 ar
  10    5    6 1
  11    6   14 2
  12    6    7 1
  13    7   13 ar
  14    7    8 ar
  15    8   33 1
  16    8    9 ar
  17    9   10 ar
  18    9   34 1
  19   10   12 ar
  20   10   11 1
  21   11   35 1
  22   12   13 ar
  23   12   36 1
  24   13   37 1
  25   14   27 1
  26   14   15 1
  27   15   16 1
  28   15   38 1
  29   15   39 1
  30   16   40 1
  31   16   41 1
  32   16   17 1
  33   17   18 1
  34   17   42 1
  35   17   43 1
  36   18   27 1
  37   18   19 1
  38   18   44 1
  39   19   20 ar
  40   19   26 ar
  41   20   21 ar
  42   20   45 1
  43   21   46 1
  44   21   22 ar
  45   22   23 1
  46   22   25 ar
  47   23   24 1
  48   24   47 1
  49   24   48 1
  50   24   49 1
  51   25   50 1
  52   25   26 ar
  53   26   51 1
  54   27   52 1
  55   27   53 1
  56   28   54 1
  57   28   29 ar
  58   29   55 1

#	End of record

