#	Name: ASD01152193
#	Creating user name:	WinNT
#	Creation time:	15. 06. 2019 19:05

#	Modifying user name:	WinNT
#	Modification time:	15. 06. 2019 19:05

#	Program:	/corina/corina34_cracker 3.40 0067  02.08.2006

@<TRIPOS>MOLECULE
ASD01152193
  28   29    0    0    0
SMALL
NO_CHARGES


@<TRIPOS>ATOM
   1 C1            -0.0507     1.1786    -0.3847 C.ar    
   2 C2             0.1298    -0.1767    -0.1881 C.ar    
   3 C3             1.3565    -0.6607     0.2248 C.ar    
   4 C4             2.4126     0.2148     0.4431 C.ar    
   5 C5             2.2349     1.5768     0.2461 C.ar    
   6 C6             1.0018     2.0597    -0.1680 C.ar    
   7 N7             0.8184     3.4328    -0.3683 N.am    
   8 N8            -0.2944     4.0702     0.1931 N.2     
   9 C9            -0.4707     5.3499     0.0104 C.2     
  10 H10           -1.3255     5.8517     0.4393 H       
  11 C11            0.5078     6.0969    -0.7845 C.2     
  12 N12            1.5662     5.4439    -1.3076 N.am    
  13 O13            0.3673     7.2915    -0.9708 O.2     
  14 C14            1.7166     4.1235    -1.0929 C.2     
  15 O15            2.6741     3.5447    -1.5690 O.2     
  16 N16            3.6543    -0.2762     0.8616 N.am    
  17 C17            4.0957    -1.4663     0.4087 C.2     
  18 O18            3.3817    -2.1509    -0.2931 O.2     
  19 C19            5.4766    -1.9465     0.7743 C.3     
  20 H20           -1.0095     1.5533    -0.7114 H       
  21 H21           -0.6897    -0.8595    -0.3571 H       
  22 H22            1.4941    -1.7209     0.3783 H       
  23 H23            3.0543     2.2595     0.4155 H       
  24 H24            2.2208     5.9268    -1.8359 H       
  25 H25            4.1973     0.2400     1.4777 H       
  26 H26            5.9645    -1.2035     1.4052 H       
  27 H27            5.4018    -2.8898     1.3154 H       
  28 H28            6.0623    -2.0936    -0.1331 H       
@<TRIPOS>BOND
   1    1    2 ar
   2    1    6 ar
   3    1   20 1
   4    2    3 ar
   5    2   21 1
   6    3    4 ar
   7    3   22 1
   8    4    5 ar
   9    4   16 1
  10    5    6 ar
  11    5   23 1
  12    6    7 1
  13    7    8 1
  14    7   14 am
  15    8    9 2
  16    9   10 1
  17    9   11 1
  18   11   12 am
  19   11   13 2
  20   12   14 am
  21   12   24 1
  22   14   15 2
  23   16   17 am
  24   16   25 1
  25   17   18 2
  26   17   19 1
  27   19   26 1
  28   19   27 1
  29   19   28 1

#	End of record

