#	Name: ASD01917349
#	Creating user name:	WinNT
#	Creation time:	15. 06. 2019 20:09

#	Modifying user name:	WinNT
#	Modification time:	15. 06. 2019 20:09

#	Program:	/corina/corina34_cracker 3.40 0067  02.08.2006

@<TRIPOS>MOLECULE
ASD01917349
  52   55    0    0    0
SMALL
NO_CHARGES


@<TRIPOS>ATOM
   1 C1            -0.0186     1.5352     0.0103 C.3     
   2 C2            -0.0015    -0.0035     0.0090 C.3     
   3 C3             1.0304    -0.4915     1.0276 C.3     
   4 C4             0.7301     0.0908     2.4101 C.3     
   5 C5             0.6816     1.6254     2.3080 C.3     
   6 C6             1.8998     2.0721     1.4671 C.3     
   7 C7             1.4513     2.0144    -0.0044 C.3     
   8 C8            -0.5326     1.9737     1.4070 C.3     
   9 C9            -0.8261     2.1049    -1.1274 C.2     
  10 O10           -0.2997     2.8392    -1.9365 O.2     
  11 N11           -2.1332     1.7984    -1.2458 N.am    
  12 C12           -2.9056     2.4088    -2.2328 C.ar    
  13 C13           -4.2244     2.0102    -2.4202 C.ar    
  14 C14           -4.9798     2.6243    -3.4033 C.ar    
  15 C15           -4.3877     3.6201    -4.1684 C.ar    
  16 C16           -3.0728     3.9656    -3.9277 C.ar    
  17 N17           -2.3785     3.3661    -2.9794 N.ar    
  18 C18           -2.4240     5.0454    -4.7549 C.3     
  19 C19            1.6269     2.0719     4.5090 C.2     
  20 C20            1.5786     2.7267     5.8337 C.ar    
  21 C21            2.6055     2.5191     6.7559 C.ar    
  22 C22            2.5541     3.1337     7.9911 C.ar    
  23 C23            1.4864     3.9539     8.3153 C.ar    
  24 C24            0.4661     4.1631     7.4052 C.ar    
  25 C25            0.5089     3.5595     6.1650 C.ar    
  26 O26            2.5622     1.3509     4.2212 O.2     
  27 N27            0.6338     2.2743     3.6206 N.am    
  28 Cl28           3.8299     2.8773     9.1402 Cl      
  29 H29           -0.9880    -0.3794     0.2806 H       
  30 H30            0.2671    -0.3644    -0.9838 H       
  31 H31            0.9988    -1.5798     1.0799 H       
  32 H32            2.0253    -0.1771     0.7121 H       
  33 H33           -0.2320    -0.2819     2.7616 H       
  34 H34            1.5139    -0.2037     3.1079 H       
  35 H35            2.1849     3.0902     1.7322 H       
  36 H36            2.7369     1.3935     1.6305 H       
  37 H37            2.0703     1.3077    -0.5572 H       
  38 H38            1.5181     3.0044    -0.4555 H       
  39 H39           -0.7411     3.0434     1.4286 H       
  40 H40           -1.4124     1.3997     1.6977 H       
  41 H41           -2.5365     1.1531    -0.6443 H       
  42 H42           -4.6532     1.2315    -1.8068 H       
  43 H43           -6.0067     2.3353    -3.5719 H       
  44 H44           -4.9497     4.1190    -4.9441 H       
  45 H45           -2.5775     6.0121    -4.2754 H       
  46 H46           -1.3555     4.8467    -4.8382 H       
  47 H47           -2.8698     5.0582    -5.7495 H       
  48 H48            3.4381     1.8790     6.5040 H       
  49 H49            1.4500     4.4320     9.2830 H       
  50 H50           -0.3640     4.8036     7.6642 H       
  51 H51           -0.2864     3.7275     5.4539 H       
  52 H52           -0.1127     2.8496     3.8503 H       
@<TRIPOS>BOND
   1    1    2 1
   2    1    7 1
   3    1    8 1
   4    1    9 1
   5    2    3 1
   6    2   29 1
   7    2   30 1
   8    3    4 1
   9    3   31 1
  10    3   32 1
  11    4    5 1
  12    4   33 1
  13    4   34 1
  14    5    6 1
  15    5    8 1
  16    5   27 1
  17    6    7 1
  18    6   35 1
  19    6   36 1
  20    7   37 1
  21    7   38 1
  22    8   39 1
  23    8   40 1
  24    9   10 2
  25    9   11 am
  26   11   12 1
  27   11   41 1
  28   12   13 ar
  29   12   17 ar
  30   13   14 ar
  31   13   42 1
  32   14   15 ar
  33   14   43 1
  34   15   16 ar
  35   15   44 1
  36   16   17 ar
  37   16   18 1
  38   18   45 1
  39   18   46 1
  40   18   47 1
  41   19   20 1
  42   19   26 2
  43   19   27 am
  44   20   21 ar
  45   20   25 ar
  46   21   22 ar
  47   21   48 1
  48   22   23 ar
  49   22   28 1
  50   23   24 ar
  51   23   49 1
  52   24   25 ar
  53   24   50 1
  54   25   51 1
  55   27   52 1

#	End of record

