#	Name: ASD01410161
#	Creating user name:	WinNT
#	Creation time:	15. 06. 2019 19:16

#	Modifying user name:	WinNT
#	Modification time:	15. 06. 2019 19:16

#	Program:	/corina/corina34_cracker 3.40 0067  02.08.2006

@<TRIPOS>MOLECULE
ASD01410161
  42   45    0    0    0
SMALL
NO_CHARGES


@<TRIPOS>ATOM
   1 C1            -0.0469     1.3950    -0.2020 C.2     
   2 C2             0.0218     0.0225     0.0349 C.2     
   3 N3            -1.2638    -0.3986     0.2480 N.pl3   
   4 C4            -2.0791     0.6984     0.1404 C.2     
   5 N5            -1.3526     1.7561    -0.1213 N.2     
   6 C6             1.2695     1.8454    -0.4236 C.2     
   7 C7             2.0976     0.7644    -0.3202 C.2     
   8 C8            -0.4798    -2.7041     0.4740 C.3     
   9 C9            -0.9247    -4.1364     0.7762 C.3     
  10 C10           -1.5410    -4.1945     2.1754 C.3     
  11 C11           -2.7511    -3.2604     2.2389 C.3     
  12 C12           -2.3061    -1.8281     1.9366 C.3     
  13 C13           -1.6899    -1.7700     0.5374 C.3     
  14 C14           -4.2031     1.7999     0.8353 C.ar    
  15 C15           -3.5495     0.6894     0.2995 C.ar    
  16 C16           -4.2892    -0.4293    -0.0859 C.ar    
  17 C17           -5.6606    -0.4311     0.0648 C.ar    
  18 C18           -6.3026     0.6732     0.5962 C.ar    
  19 C19           -5.5750     1.7855     0.9802 C.ar    
  20 N20            1.3300    -0.3520    -0.0390 N.pl3   
  21 C21            3.5520     0.7833    -0.4806 C.2     
  22 O22            4.1231     1.8285    -0.7283 O.2     
  23 O23            4.2596    -0.3585    -0.3539 O.3     
  24 H24            1.5692     2.8609    -0.6366 H       
  25 H25            0.2603    -2.3906     1.2102 H       
  26 H26           -0.0407    -2.6628    -0.5229 H       
  27 H27           -1.6648    -4.4500     0.0400 H       
  28 H28           -0.0627    -4.8019     0.7310 H       
  29 H29           -1.8580    -5.2149     2.3908 H       
  30 H30           -0.8009    -3.8809     2.9117 H       
  31 H31           -3.4912    -3.5740     1.5026 H       
  32 H32           -3.1901    -3.3017     3.2357 H       
  33 H33           -3.1682    -1.1626     1.9818 H       
  34 H34           -1.5661    -1.5145     2.6729 H       
  35 H35           -2.4299    -2.0836    -0.1988 H       
  36 H36           -3.6358     2.6671     1.1395 H       
  37 H37           -3.7893    -1.2917    -0.5015 H       
  38 H38           -6.2342    -1.2964    -0.2331 H       
  39 H39           -7.3764     0.6670     0.7114 H       
  40 H40           -6.0821     2.6443     1.3947 H       
  41 H41            1.6675    -1.2527     0.0856 H       
  42 H42            5.2122    -0.2465    -0.4767 H       
@<TRIPOS>BOND
   1    1    2 2
   2    1    6 1
   3    1    5 1
   4    2    3 1
   5    2   20 1
   6    3    4 1
   7    3   13 1
   8    4    5 2
   9    4   15 1
  10    6    7 2
  11    6   24 1
  12    7   20 1
  13    7   21 1
  14    8    9 1
  15    8   13 1
  16    8   25 1
  17    8   26 1
  18    9   10 1
  19    9   27 1
  20    9   28 1
  21   10   11 1
  22   10   29 1
  23   10   30 1
  24   11   12 1
  25   11   31 1
  26   11   32 1
  27   12   13 1
  28   12   33 1
  29   12   34 1
  30   13   35 1
  31   14   15 ar
  32   14   19 ar
  33   14   36 1
  34   15   16 ar
  35   16   17 ar
  36   16   37 1
  37   17   18 ar
  38   17   38 1
  39   18   19 ar
  40   18   39 1
  41   19   40 1
  42   20   41 1
  43   21   22 2
  44   21   23 1
  45   23   42 1

#	End of record

