#	Name: ASD00170964
#	Creating user name:	WinNT
#	Creation time:	15. 06. 2019 18:32

#	Modifying user name:	WinNT
#	Modification time:	15. 06. 2019 18:32

#	Program:	/corina/corina34_cracker 3.40 0067  02.08.2006

@<TRIPOS>MOLECULE
ASD00170964
  70   72    0    0    0
SMALL
NO_CHARGES


@<TRIPOS>ATOM
   1 C1            -0.8168     1.3195     2.6054 C.2     
   2 O2            -1.1769     0.9960     3.7227 O.2     
   3 C3             0.4909     0.8620     2.0887 C.ar    
   4 C4             1.3603     0.1481     2.9155 C.ar    
   5 C5             2.5785    -0.2759     2.4281 C.ar    
   6 C6             2.9405     0.0056     1.1210 C.ar    
   7 C7             2.0824     0.7139     0.2960 C.ar    
   8 C8             0.8587     1.1373     0.7702 C.ar    
   9 Cl9            4.4761    -0.5309     0.5146 Cl      
  10 C10           -1.6949     3.5327     1.8289 C.2     
  11 C11           -1.6811     2.1561     1.7715 C.2     
  12 C12           -2.6094     1.6270     0.8010 C.2     
  13 C13           -3.2926     2.5811     0.1565 C.2     
  14 S14           -2.8191     4.1737     0.7202 S.3     
  15 C15           -4.3068     2.3275    -0.8880 C.ar    
  16 C16           -5.5685     2.9183    -0.7984 C.ar    
  17 C17           -6.5106     2.6773    -1.7769 C.ar    
  18 C18           -6.2073     1.8521    -2.8453 C.ar    
  19 C19           -4.9589     1.2629    -2.9399 C.ar    
  20 C20           -4.0055     1.5005    -1.9716 C.ar    
  21 C21           -2.7907     0.1539     0.5403 C.3     
  22 N22           -3.6998    -0.4130     1.5454 N.3     
  23 C23           -5.0542     0.1369     1.4000 C.3     
  24 C24           -5.8341    -0.1075     2.6661 C.2     
  25 C25           -6.3667     0.9000     3.3121 C.2     
  26 C26           -7.1467     0.6555     4.5782 C.3     
  27 C27           -6.5611     1.5029     5.7096 C.3     
  28 C28           -7.3530     1.2547     6.9950 C.3     
  29 C29           -3.7166    -1.8801     1.4721 C.3     
  30 C30           -4.2933    -2.4401     2.7468 C.2     
  31 C31           -5.3147    -3.2590     2.6993 C.2     
  32 C32           -5.8914    -3.8190     3.9740 C.3     
  33 C33           -7.3884    -3.5094     4.0357 C.3     
  34 C34           -7.9739    -4.0780     5.3299 C.3     
  35 N35           -0.9101     4.2886     2.6729 N.pl3   
  36 H36            1.0794    -0.0713     3.9350 H       
  37 H37            3.2519    -0.8282     3.0667 H       
  38 H38            2.3703     0.9310    -0.7220 H       
  39 H39            0.1882     1.6850     0.1245 H       
  40 H40           -5.8065     3.5624     0.0352 H       
  41 H41           -7.4871     3.1335    -1.7086 H       
  42 H42           -6.9485     1.6666    -3.6086 H       
  43 H43           -4.7289     0.6192    -3.7761 H       
  44 H44           -3.0297     1.0442    -2.0494 H       
  45 H45           -3.2134     0.0102    -0.4541 H       
  46 H46           -1.8246    -0.3473     0.6003 H       
  47 H47           -4.9928     1.2088     1.2123 H       
  48 H48           -5.5563    -0.3502     0.5642 H       
  49 H49           -5.9540    -1.1133     3.0408 H       
  50 H50           -6.2469     1.9058     2.9374 H       
  51 H51           -8.1898     0.9301     4.4211 H       
  52 H52           -7.0849    -0.3995     4.8451 H       
  53 H53           -5.5180     1.2283     5.8667 H       
  54 H54           -6.6228     2.5579     5.4428 H       
  55 H55           -8.3960     1.5293     6.8379 H       
  56 H56           -7.2912     0.1997     7.2618 H       
  57 H57           -6.9358     1.8584     7.8010 H       
  58 H58           -4.3292    -2.1947     0.6272 H       
  59 H59           -2.6993    -2.2490     1.3407 H       
  60 H60           -3.8644    -2.1664     3.6995 H       
  61 H61           -5.7435    -3.5327     1.7467 H       
  62 H62           -5.7424    -4.8985     3.9967 H       
  63 H63           -5.3909    -3.3651     4.8294 H       
  64 H64           -7.5374    -2.4299     4.0130 H       
  65 H65           -7.8889    -3.9633     3.1803 H       
  66 H66           -7.8249    -5.1575     5.3525 H       
  67 H67           -7.4735    -3.6241     6.1852 H       
  68 H68           -9.0405    -3.8574     5.3738 H       
  69 H69           -0.3480     3.8529     3.3325 H       
  70 H70           -0.9199     5.2564     2.6072 H       
@<TRIPOS>BOND
   1    1    2 2
   2    1    3 1
   3    1   11 1
   4    3    4 ar
   5    3    8 ar
   6    4    5 ar
   7    4   36 1
   8    5    6 ar
   9    5   37 1
  10    6    7 ar
  11    6    9 1
  12    7    8 ar
  13    7   38 1
  14    8   39 1
  15   10   11 2
  16   10   14 1
  17   10   35 1
  18   11   12 1
  19   12   13 2
  20   12   21 1
  21   13   14 1
  22   13   15 1
  23   15   16 ar
  24   15   20 ar
  25   16   17 ar
  26   16   40 1
  27   17   18 ar
  28   17   41 1
  29   18   19 ar
  30   18   42 1
  31   19   20 ar
  32   19   43 1
  33   20   44 1
  34   21   22 1
  35   21   45 1
  36   21   46 1
  37   22   23 1
  38   22   29 1
  39   23   24 1
  40   23   47 1
  41   23   48 1
  42   24   25 2
  43   24   49 1
  44   25   26 1
  45   25   50 1
  46   26   27 1
  47   26   51 1
  48   26   52 1
  49   27   28 1
  50   27   53 1
  51   27   54 1
  52   28   55 1
  53   28   56 1
  54   28   57 1
  55   29   30 1
  56   29   58 1
  57   29   59 1
  58   30   31 2
  59   30   60 1
  60   31   32 1
  61   31   61 1
  62   32   33 1
  63   32   62 1
  64   32   63 1
  65   33   34 1
  66   33   64 1
  67   33   65 1
  68   34   66 1
  69   34   67 1
  70   34   68 1
  71   35   69 1
  72   35   70 1

#	End of record

