#	Name: ASD05060061
#	Creating user name:	WinNT
#	Creation time:	15. 06. 2019 20:56

#	Modifying user name:	WinNT
#	Modification time:	15. 06. 2019 20:56

#	Program:	/corina/corina34_cracker 3.40 0067  02.08.2006

@<TRIPOS>MOLECULE
ASD05060061
  63   66    0    0    0
SMALL
NO_CHARGES


@<TRIPOS>ATOM
   1 C1            -2.4894    -2.9976    -0.0317 C.2     
   2 C2            -1.2333    -2.2165     0.0418 C.2     
   3 C3            -0.0394    -2.8484    -0.0228 C.2     
   4 C4             1.1967    -2.0694    -0.1582 C.2     
   5 O5            -2.4473    -4.2062    -0.1502 O.2     
   6 N6            -3.6793    -2.3684     0.0383 N.am    
   7 O7             1.1416    -0.8652    -0.3306 O.2     
   8 C8            -4.9218    -3.1410    -0.0345 C.3     
   9 C9            -6.0659    -2.2517    -0.5523 C.3     
  10 C10           -7.1333    -2.2143     0.5608 C.3     
  11 C11           -6.3457    -2.5420     1.8535 C.3     
  12 C12           -5.3340    -3.6129     1.3752 C.3     
  13 O13           -6.6207    -2.8123    -1.7439 O.3     
  14 O14           -1.2801    -0.8703     0.1738 O.3     
  15 C15            3.7061    -1.9899    -0.1052 C.2     
  16 C16            2.5020    -2.7429    -0.0856 C.2     
  17 C17            2.5798    -4.1325     0.0042 C.2     
  18 C18            3.8350    -4.7350     0.0716 C.2     
  19 C19            4.9595    -3.9732     0.0496 C.2     
  20 N20            4.8923    -2.6236    -0.0369 N.am    
  21 O21            3.6660    -0.7747    -0.1881 O.2     
  22 C22            3.9446    -6.2348     0.1696 C.3     
  23 C23            3.8250    -6.6540     1.6122 C.ar    
  24 C24            2.5831    -6.9412     2.1473 C.ar    
  25 C25            2.4723    -7.3262     3.4700 C.ar    
  26 C26            3.6057    -7.4242     4.2592 C.ar    
  27 C27            4.8490    -7.1363     3.7222 C.ar    
  28 C28            4.9579    -6.7566     2.3979 C.ar    
  29 F29            3.4984    -7.8000     5.5525 F       
  30 C30            6.1301    -1.8403    -0.0582 C.3     
  31 C31            6.5215    -1.4810     1.3521 C.ar    
  32 C32            7.1649    -2.4114     2.1508 C.ar    
  33 C33            7.5238    -2.0800     3.4461 C.ar    
  34 C34            7.2395    -0.8210     3.9407 C.ar    
  35 C35            6.5968     0.1067     3.1427 C.ar    
  36 C36            6.2434    -0.2211     1.8468 C.ar    
  37 F37            7.4418    -3.6419     1.6664 F       
  38 H38            0.0043    -3.9265     0.0252 H       
  39 H39           -3.7128    -1.4040     0.1368 H       
  40 H40           -4.7898    -4.0002    -0.6921 H       
  41 H41           -5.6966    -1.2453    -0.7495 H       
  42 H42           -7.5803    -1.2223     0.6275 H       
  43 H43           -7.8999    -2.9677     0.3797 H       
  44 H44           -5.8264    -1.6582     2.2241 H       
  45 H45           -7.0084    -2.9503     2.6166 H       
  46 H46           -5.8100    -4.5922     1.3257 H       
  47 H47           -4.4678    -3.6417     2.0363 H       
  48 H48           -7.3474    -2.2969    -2.1198 H       
  49 H49           -0.4155    -0.4575     0.3042 H       
  50 H50            1.6818    -4.7322     0.0216 H       
  51 H51            5.9255    -4.4532     0.1025 H       
  52 H52            3.1453    -6.6962    -0.4103 H       
  53 H53            4.9098    -6.5549    -0.2229 H       
  54 H54            1.6992    -6.8643     1.5316 H       
  55 H55            1.5019    -7.5501     3.8879 H       
  56 H56            5.7337    -7.2124     4.3369 H       
  57 H57            5.9280    -6.5360     1.9776 H       
  58 H58            6.9247    -2.4287    -0.5170 H       
  59 H59            5.9735    -0.9289    -0.6352 H       
  60 H60            8.0253    -2.8050     4.0700 H       
  61 H61            7.5194    -0.5622     4.9512 H       
  62 H62            6.3745     1.0900     3.5303 H       
  63 H63            5.7459     0.5063     1.2225 H       
@<TRIPOS>BOND
   1    1    2 1
   2    1    5 2
   3    1    6 am
   4    2    3 2
   5    2   14 1
   6    3    4 1
   7    3   38 1
   8    4    7 2
   9    4   16 1
  10    6    8 1
  11    6   39 1
  12    8    9 1
  13    8   12 1
  14    8   40 1
  15    9   10 1
  16    9   13 1
  17    9   41 1
  18   10   11 1
  19   10   42 1
  20   10   43 1
  21   11   12 1
  22   11   44 1
  23   11   45 1
  24   12   46 1
  25   12   47 1
  26   13   48 1
  27   14   49 1
  28   15   16 1
  29   15   20 am
  30   15   21 2
  31   16   17 2
  32   17   18 1
  33   17   50 1
  34   18   19 2
  35   18   22 1
  36   19   20 1
  37   19   51 1
  38   20   30 1
  39   22   23 1
  40   22   52 1
  41   22   53 1
  42   23   24 ar
  43   23   28 ar
  44   24   25 ar
  45   24   54 1
  46   25   26 ar
  47   25   55 1
  48   26   27 ar
  49   26   29 1
  50   27   28 ar
  51   27   56 1
  52   28   57 1
  53   30   31 1
  54   30   58 1
  55   30   59 1
  56   31   32 ar
  57   31   36 ar
  58   32   33 ar
  59   32   37 1
  60   33   34 ar
  61   33   60 1
  62   34   35 ar
  63   34   61 1
  64   35   36 ar
  65   35   62 1
  66   36   63 1

#	End of record

