#	Name: ASD01140080
#	Creating user name:	WinNT
#	Creation time:	15. 06. 2019 18:59

#	Modifying user name:	WinNT
#	Modification time:	15. 06. 2019 18:59

#	Program:	/corina/corina34_cracker 3.40 0067  02.08.2006

@<TRIPOS>MOLECULE
ASD01140080
  60   63    0    0    0
SMALL
NO_CHARGES


@<TRIPOS>ATOM
   1 C1            -0.3584     3.3720     0.7475 C.3     
   2 C2            -0.7502     1.9067     0.9303 C.3     
   3 C3             0.0332     1.2691     2.0734 C.3     
   4 C4             1.5396     1.4469     1.9112 C.3     
   5 C5             1.8944     2.9265     1.7462 C.3     
   6 C6             1.1515     3.5046     0.5480 C.3     
   7 C7             2.0533     0.6081     0.7455 C.3     
   8 C8             3.5724     0.7801     0.6049 C.3     
   9 C9             3.8353     2.2633     0.3321 C.3     
  10 C10            3.4137     3.0614     1.5648 C.3     
  11 C11            5.2375     2.5502    -0.0831 C.3     
  12 C12            6.0264     3.3745     0.9572 C.3     
  13 C13            5.3391     4.6968     1.1789 C.3     
  14 C14            3.8426     4.5140     1.4694 C.3     
  15 C15            6.1983     1.3765    -0.3229 C.3     
  16 C16            7.5401     2.1426    -0.5301 C.3     
  17 C17            7.4026     3.4677     0.2617 C.3     
  18 C18           -2.2488     1.8464     1.2753 C.3     
  19 C19            1.4951     3.6793     3.0228 C.3     
  20 C20            6.2567     2.6331     2.2716 C.3     
  21 C21            8.4873     3.5751     1.2986 C.2     
  22 C22            8.9021     4.9276     1.8179 C.3     
  23 O23            9.0257     2.5774     1.7147 O.2     
  24 H24            2.0265     1.0842     2.8312 H       
  25 O25           -0.5436     1.1891    -0.2857 O.3     
  26 H26           -0.8636     3.7598    -0.1466 H       
  27 H27           -0.6895     3.9572     1.6008 H       
  28 H28           -0.2974     1.6872     3.0251 H       
  29 H29           -0.1908     0.1929     2.0923 H       
  30 H30            1.4369     2.9759    -0.3624 H       
  31 H31            1.4030     4.5620     0.4343 H       
  32 H32            1.8277    -0.4433     0.9227 H       
  33 H33            1.5873     0.9290    -0.1846 H       
  34 H34            4.0620     0.4815     1.5274 H       
  35 H35            3.9318     0.1830    -0.2290 H       
  36 H36            3.1688     2.5560    -0.5027 H       
  37 H37            3.8429     2.6079     2.4629 H       
  38 H38            5.2045     3.1385    -1.0291 H       
  39 H39            5.8109     5.2184     2.0236 H       
  40 H40            5.4635     5.3303     0.2904 H       
  41 H41            3.2670     5.0112     0.6771 H       
  42 H42            3.6160     5.0338     2.4101 H       
  43 H43            6.2499     0.7014     0.5187 H       
  44 H44            5.9271     0.8433    -1.2356 H       
  45 H45            8.3670     1.5537    -0.1397 H       
  46 H46            7.6845     2.3517    -1.5886 H       
  47 H47            7.4161     4.3206    -0.4088 H       
  48 H48           -2.8265     2.2893     0.4639 H       
  49 H49           -2.5492     0.8073     1.4100 H       
  50 H50           -2.4322     2.4000     2.1961 H       
  51 H51            2.0351     3.2637     3.8736 H       
  52 H52            1.7440     4.7350     2.9150 H       
  53 H53            0.4226     3.5737     3.1864 H       
  54 H54            6.9419     1.8020     2.1048 H       
  55 H55            6.6863     3.3168     3.0039 H       
  56 H56            5.3064     2.2513     2.6447 H       
  57 H57            8.3098     5.7015     1.3297 H       
  58 H58            8.7378     4.9694     2.8946 H       
  59 H59            9.9587     5.0902     1.6050 H       
  60 H60           -1.0575     1.5251    -1.0328 H       
@<TRIPOS>BOND
   1    1    2 1
   2    1    6 1
   3    1   26 1
   4    1   27 1
   5    2    3 1
   6    2   18 1
   7    2   25 1
   8    3    4 1
   9    3   28 1
  10    3   29 1
  11    4    5 1
  12    4    7 1
  13    4   24 1
  14    5    6 1
  15    5   19 1
  16    5   10 1
  17    6   30 1
  18    6   31 1
  19    7    8 1
  20    7   32 1
  21    7   33 1
  22    8    9 1
  23    8   34 1
  24    8   35 1
  25    9   10 1
  26    9   11 1
  27    9   36 1
  28   10   14 1
  29   10   37 1
  30   11   12 1
  31   11   15 1
  32   11   38 1
  33   12   13 1
  34   12   20 1
  35   12   17 1
  36   13   14 1
  37   13   39 1
  38   13   40 1
  39   14   41 1
  40   14   42 1
  41   15   16 1
  42   15   43 1
  43   15   44 1
  44   16   17 1
  45   16   45 1
  46   16   46 1
  47   17   21 1
  48   17   47 1
  49   18   48 1
  50   18   49 1
  51   18   50 1
  52   19   51 1
  53   19   52 1
  54   19   53 1
  55   20   54 1
  56   20   55 1
  57   20   56 1
  58   21   22 1
  59   21   23 2
  60   22   57 1
  61   22   58 1
  62   22   59 1
  63   25   60 1

#	End of record

