#	Name: ASD01940164
#	Creating user name:	WinNT
#	Creation time:	15. 06. 2019 20:11

#	Modifying user name:	WinNT
#	Modification time:	15. 06. 2019 20:11

#	Program:	/corina/corina34_cracker 3.40 0067  02.08.2006

@<TRIPOS>MOLECULE
ASD01940164
  40   42    0    0    0
SMALL
NO_CHARGES


@<TRIPOS>ATOM
   1 I1             2.7923    -4.5923    -1.6234 I       
   2 F2             1.9042     1.5926     2.2856 F       
   3 C3             1.0655     2.1474     1.3834 C.ar    
   4 C4             1.3893     2.1335     0.0332 C.ar    
   5 C5             0.5205     2.7068    -0.8939 C.ar    
   6 C6            -0.6628     3.2883    -0.4640 C.ar    
   7 C7            -0.9799     3.2997     0.8819 C.ar    
   8 C8            -0.1214     2.7259     1.8041 C.ar    
   9 N9             2.5867     1.5449    -0.3962 N.pl3   
  10 N10            0.8425     2.6960    -2.2577 N.am    
  11 C11            2.6333     0.1744    -0.6703 C.ar    
  12 C12            1.4782    -0.5912    -0.5877 C.ar    
  13 C13            1.5270    -1.9451    -0.8595 C.ar    
  14 C14            2.7248    -2.5389    -1.2133 C.ar    
  15 C15            3.8791    -1.7800    -1.2965 C.ar    
  16 C16            3.8363    -0.4240    -1.0320 C.ar    
  17 F17            4.9631     0.3171    -1.1132 F       
  18 F18           -0.4390     2.7345     3.1172 F       
  19 S19            0.4260     3.9800    -3.2170 S.o2    
  20 O20            0.9903     3.6688    -4.4834 O.2     
  21 O21           -0.9802     4.0998    -3.0510 O.2     
  22 C22           -0.3257     7.0950    -3.0105 C.3     
  23 C23           -0.5211     8.6060    -3.1513 C.3     
  24 C24           -1.0678     7.6607    -4.2230 C.3     
  25 C25            1.2780     5.3972    -2.4713 C.3     
  26 O26            0.9888     6.5769    -3.2241 O.3     
  27 H27           -1.3371     3.7330    -1.1809 H       
  28 H28           -1.9019     3.7535     1.2141 H       
  29 H29            3.3831     2.0882    -0.5033 H       
  30 H30            1.3093     1.9364    -2.6398 H       
  31 H31            0.5422    -0.1290    -0.3109 H       
  32 H32            0.6283    -2.5406    -0.7953 H       
  33 H33            4.8130    -2.2468    -1.5727 H       
  34 H34           -0.9170     6.5795    -2.2536 H       
  35 H35           -1.2411     9.0844    -2.4874 H       
  36 H36            0.3531     9.2048    -3.4069 H       
  37 H37           -0.5534     7.6377    -5.1837 H       
  38 H38           -2.1476     7.5173    -4.2641 H       
  39 H39            0.9355     5.5282    -1.4448 H       
  40 H40            2.3532     5.2181    -2.4755 H       
@<TRIPOS>BOND
   1    1   14 1
   2    2    3 1
   3    3    4 ar
   4    3    8 ar
   5    4    5 ar
   6    4    9 1
   7    5    6 ar
   8    5   10 1
   9    6    7 ar
  10    6   27 1
  11    7    8 ar
  12    7   28 1
  13    8   18 1
  14    9   11 1
  15    9   29 1
  16   10   19 am
  17   10   30 1
  18   11   12 ar
  19   11   16 ar
  20   12   13 ar
  21   12   31 1
  22   13   14 ar
  23   13   32 1
  24   14   15 ar
  25   15   16 ar
  26   15   33 1
  27   16   17 1
  28   19   20 2
  29   19   21 2
  30   19   25 1
  31   22   23 1
  32   22   26 1
  33   22   24 1
  34   22   34 1
  35   23   24 1
  36   23   35 1
  37   23   36 1
  38   24   37 1
  39   24   38 1
  40   25   26 1
  41   25   39 1
  42   25   40 1

#	End of record

