#	Name: ASD01001071
#	Creating user name:	WinNT
#	Creation time:	15. 06. 2019 18:55

#	Modifying user name:	WinNT
#	Modification time:	15. 06. 2019 18:55

#	Program:	/corina/corina34_cracker 3.40 0067  02.08.2006

@<TRIPOS>MOLECULE
ASD01001071
  39   41    0    0    0
SMALL
NO_CHARGES


@<TRIPOS>ATOM
   1 C1            -0.0375     1.3335     0.0566 C.ar    
   2 C2             0.0257    -0.0430    -0.0006 C.ar    
   3 C3             1.1407     2.0842     0.0519 C.ar    
   4 C4             1.2524    -0.6807    -0.0621 C.ar    
   5 C5             2.3751     1.4339    -0.0108 C.ar    
   6 C6             1.0812     3.5566     0.1124 C.2     
   7 C7             2.4232     0.0563    -0.0671 C.ar    
   8 N8             2.1000     4.3380     0.2148 N.2     
   9 N9             1.7771     5.6929     0.2520 N.am    
  10 C10            0.3154     5.8362     0.1601 C.3     
  11 C11           -0.1846     4.3817     0.0572 C.3     
  12 C12            2.6593     6.7066     0.3553 C.2     
  13 C13           -0.2308     6.5038     1.3958 C.ar    
  14 C14           -1.2616     7.4187     1.2889 C.ar    
  15 C15           -1.7626     8.0311     2.4224 C.ar    
  16 C16           -1.2331     7.7283     3.6629 C.ar    
  17 C17           -0.2029     6.8128     3.7699 C.ar    
  18 C18            0.2952     6.1971     2.6368 C.ar    
  19 C19            4.1353     6.4151     0.4412 C.3     
  20 O20            2.2651     7.8536     0.3791 O.2     
  21 C21            3.6515     2.2350    -0.0158 C.3     
  22 H22           -0.9955     1.8300     0.1004 H       
  23 H23           -0.8843    -0.6247     0.0029 H       
  24 H24            1.2959    -1.7590    -0.1060 H       
  25 H25            3.3770    -0.4480    -0.1149 H       
  26 H26            0.0403     6.3968    -0.7334 H       
  27 H27           -0.7096     4.2235    -0.8849 H       
  28 H28           -0.8302     4.1387     0.9012 H       
  29 H29           -1.6753     7.6552     0.3197 H       
  30 H30           -2.5674     8.7464     2.3387 H       
  31 H31           -1.6240     8.2073     4.5484 H       
  32 H32            0.2110     6.5765     4.7391 H       
  33 H33            1.1000     5.4819     2.7205 H       
  34 H34            4.2956     5.3376     0.4047 H       
  35 H35            4.6482     6.8873    -0.3967 H       
  36 H36            4.5297     6.8096     1.3776 H       
  37 H37            3.9288     2.4831     1.0087 H       
  38 H38            4.4469     1.6484    -0.4756 H       
  39 H39            3.5021     3.1530    -0.5842 H       
@<TRIPOS>BOND
   1    1    2 ar
   2    1    3 ar
   3    1   22 1
   4    2    4 ar
   5    2   23 1
   6    3    6 1
   7    3    5 ar
   8    4    7 ar
   9    4   24 1
  10    5   21 1
  11    5    7 ar
  12    6    8 2
  13    6   11 1
  14    7   25 1
  15    8    9 1
  16    9   10 1
  17    9   12 am
  18   10   11 1
  19   10   13 1
  20   10   26 1
  21   11   27 1
  22   11   28 1
  23   12   19 1
  24   12   20 2
  25   13   14 ar
  26   13   18 ar
  27   14   15 ar
  28   14   29 1
  29   15   16 ar
  30   15   30 1
  31   16   17 ar
  32   16   31 1
  33   17   18 ar
  34   17   32 1
  35   18   33 1
  36   19   34 1
  37   19   35 1
  38   19   36 1
  39   21   37 1
  40   21   38 1
  41   21   39 1

#	End of record

