#	Name: ASD01901540
#	Creating user name:	WinNT
#	Creation time:	15. 06. 2019 19:53

#	Modifying user name:	WinNT
#	Modification time:	15. 06. 2019 19:53

#	Program:	/corina/corina34_cracker 3.40 0067  02.08.2006

@<TRIPOS>MOLECULE
ASD01901540
  36   39    0    0    0
SMALL
NO_CHARGES


@<TRIPOS>ATOM
   1 C1             0.9757     1.1634    -0.3131 C.3     
   2 C2             0.9183    -0.3623    -0.4124 C.3     
   3 C3             1.3353    -0.7980    -1.8185 C.3     
   4 C4             1.2786    -2.3007    -1.9163 C.2     
   5 N5             2.3087    -3.0154    -1.6213 N.2     
   6 S6             1.9080    -4.6490    -1.8364 S.3     
   7 C7             0.2473    -4.3480    -2.3567 C.ar    
   8 C8            -0.7991    -5.1722    -2.7374 C.ar    
   9 C9            -2.0130    -4.6124    -3.0994 C.ar    
  10 N10           -3.0756    -5.4324    -3.4845 N.pl3   
  11 C11           -3.1801    -6.7283    -2.9711 C.2     
  12 N12           -2.4174    -7.2578    -2.0519 N.2     
  13 N13           -2.8201    -8.5713    -1.7919 N.pl3   
  14 H14           -2.4071    -9.1680    -1.1483 H       
  15 C15           -3.8890    -8.8821    -2.5874 C.ar    
  16 N16           -4.6355    -9.9701    -2.7354 N.ar    
  17 C17           -5.6257    -9.9728    -3.6058 C.ar    
  18 C18           -5.8970    -8.8457    -4.3721 C.ar    
  19 N19           -5.1674    -7.7569    -4.2394 N.ar    
  20 C20           -4.1682    -7.7362    -3.3616 C.ar    
  21 C21           -2.1709    -3.2252    -3.0775 C.ar    
  22 C22           -1.1513    -2.4078    -2.7064 C.ar    
  23 C23            0.0982    -2.9467    -2.3255 C.ar    
  24 H24            1.9924     1.5024    -0.5120 H       
  25 H25            0.2971     1.6010    -1.0453 H       
  26 H26            0.6787     1.4738     0.6886 H       
  27 H27            1.5969    -0.7999     0.3198 H       
  28 H28           -0.0984    -0.7013    -0.2135 H       
  29 H29            0.6566    -0.3604    -2.5507 H       
  30 H30            2.3519    -0.4590    -2.0174 H       
  31 H31           -0.6690    -6.2442    -2.7520 H       
  32 H32           -3.7412    -5.1028    -4.1084 H       
  33 H33           -6.2313   -10.8592    -3.7247 H       
  34 H34           -6.7112    -8.8627    -5.0815 H       
  35 H35           -3.1200    -2.7946    -3.3610 H       
  36 H36           -1.2982    -1.3379    -2.6983 H       
@<TRIPOS>BOND
   1    1    2 1
   2    1   24 1
   3    1   25 1
   4    1   26 1
   5    2    3 1
   6    2   27 1
   7    2   28 1
   8    3    4 1
   9    3   29 1
  10    3   30 1
  11    4   23 1
  12    4    5 2
  13    5    6 1
  14    6    7 1
  15    7   23 ar
  16    7    8 ar
  17    8    9 ar
  18    8   31 1
  19    9   10 1
  20    9   21 ar
  21   10   11 1
  22   10   32 1
  23   11   20 1
  24   11   12 2
  25   12   13 1
  26   13   14 1
  27   13   15 1
  28   15   20 ar
  29   15   16 ar
  30   16   17 ar
  31   17   18 ar
  32   17   33 1
  33   18   19 ar
  34   18   34 1
  35   19   20 ar
  36   21   22 ar
  37   21   35 1
  38   22   23 ar
  39   22   36 1

#	End of record

