#	Name: ASD04882115
#	Creating user name:	WinNT
#	Creation time:	15. 06. 2019 20:54

#	Modifying user name:	WinNT
#	Modification time:	15. 06. 2019 20:54

#	Program:	/corina/corina34_cracker 3.40 0067  02.08.2006

@<TRIPOS>MOLECULE
ASD04882115
  72   76    0    0    0
SMALL
NO_CHARGES


@<TRIPOS>ATOM
   1 C1             0.4711     1.4270    -0.4616 C.2     
   2 S2             0.5700    -0.2018    -1.0085 S.3     
   3 N3             2.0555    -0.1264    -1.4921 N.2     
   4 N4             2.5205     1.0413    -1.2829 N.2     
   5 C5             1.7224     1.9452    -0.7256 C.2     
   6 C6             2.1241     3.3318    -0.4264 C.2     
   7 O7             1.3303     4.0979     0.0856 O.2     
   8 N8             3.3710     3.7505    -0.7203 N.am    
   9 C9             3.7198     5.0952    -0.5376 C.ar    
  10 C10            5.0220     5.4350    -0.1592 C.ar    
  11 C11            5.3693     6.7684     0.0229 C.ar    
  12 C12            4.4321     7.7598    -0.1688 C.ar    
  13 C13            3.1288     7.4271    -0.5470 C.ar    
  14 C14            2.7786     6.0869    -0.7368 C.ar    
  15 N15            5.9724     4.4361     0.0361 N.3     
  16 C16            5.6287     3.6017     1.1959 C.3     
  17 C17            6.6515     2.4709     1.3285 C.3     
  18 N18            7.9962     3.0450     1.4762 N.3     
  19 C19            8.3399     3.8794     0.3164 C.3     
  20 C20            7.3171     5.0102     0.1839 C.3     
  21 C21            8.9495     2.0430     1.6721 C.ar    
  22 C22            8.9354     1.2869     2.8376 C.ar    
  23 C23           10.8376     0.0578     2.0599 C.ar    
  24 C24            9.9100     1.7965     0.6996 C.ar    
  25 C25            9.8790     0.2969     3.0278 C.ar    
  26 C26           10.8509     0.8046     0.8963 C.ar    
  27 C27            7.8919     1.5474     3.8932 C.3     
  28 C28            2.1252     8.4889    -0.7517 C.2     
  29 N29            2.4653     9.7808    -0.5738 N.am    
  30 O30            0.9913     8.1984    -1.0809 O.2     
  31 C31            1.4687    10.8353    -0.7770 C.3     
  32 C32            2.1086    12.1996    -0.5124 C.3     
  33 C33            1.0678    13.3008    -0.7246 C.3     
  34 N34            1.6805    14.6072    -0.4712 N.am    
  35 C35            2.2894    15.3539    -1.4085 C.2     
  36 C36            2.8136    16.6334    -0.7946 C.3     
  37 C37            2.7976    16.3584     0.7269 C.3     
  38 C38            1.7028    15.2716     0.8372 C.3     
  39 O39            2.4024    15.0465    -2.5762 O.2     
  40 H40           -0.3762     1.9290    -0.0183 H       
  41 H41            4.0270     3.1209    -1.0582 H       
  42 H42            6.3759     7.0279     0.3156 H       
  43 H43            4.7049     8.7950    -0.0262 H       
  44 H44            1.7733     5.8270    -1.0338 H       
  45 H45            5.6417     4.2116     2.0993 H       
  46 H46            4.6341     3.1780     1.0572 H       
  47 H47            6.4152     1.8677     2.2051 H       
  48 H48            6.6193     1.8451     0.4366 H       
  49 H49            9.3345     4.3031     0.4552 H       
  50 H50            8.3268     3.2696    -0.5870 H       
  51 H51            7.5533     5.6134    -0.6927 H       
  52 H52            7.3493     5.6361     1.0757 H       
  53 H53           11.5746    -0.7169     2.2113 H       
  54 H54            9.9209     2.3795    -0.2095 H       
  55 H55            9.8686    -0.2912     3.9335 H       
  56 H56           11.6008     0.6154     0.1425 H       
  57 H57            7.0467     0.8759     3.7420 H       
  58 H58            8.3219     1.3738     4.8797 H       
  59 H59            7.5525     2.5807     3.8214 H       
  60 H60            3.3699    10.0125    -0.3112 H       
  61 H61            1.1043    10.7978    -1.8036 H       
  62 H62            0.6358    10.6852    -0.0902 H       
  63 H63            2.4729    12.2370     0.5142 H       
  64 H64            2.9415    12.3496    -1.1993 H       
  65 H65            0.7034    13.2634    -1.7512 H       
  66 H66            0.2348    13.1508    -0.0378 H       
  67 H67            3.8297    16.8318    -1.1358 H       
  68 H68            2.1584    17.4697    -1.0381 H       
  69 H69            3.7627    15.9812     1.0653 H       
  70 H70            2.5134    17.2524     1.2819 H       
  71 H71            0.7347    15.7273     1.0454 H       
  72 H72            1.9599    14.5567     1.6189 H       
@<TRIPOS>BOND
   1    1    2 1
   2    1    5 2
   3    1   40 1
   4    2    3 1
   5    3    4 2
   6    4    5 1
   7    5    6 1
   8    6    7 2
   9    6    8 am
  10    8    9 1
  11    8   41 1
  12    9   10 ar
  13    9   14 ar
  14   10   11 ar
  15   10   15 1
  16   11   12 ar
  17   11   42 1
  18   12   13 ar
  19   12   43 1
  20   13   14 ar
  21   13   28 1
  22   14   44 1
  23   15   16 1
  24   15   20 1
  25   16   17 1
  26   16   45 1
  27   16   46 1
  28   17   18 1
  29   17   47 1
  30   17   48 1
  31   18   19 1
  32   18   21 1
  33   19   20 1
  34   19   49 1
  35   19   50 1
  36   20   51 1
  37   20   52 1
  38   21   22 ar
  39   21   24 ar
  40   22   25 ar
  41   22   27 1
  42   23   25 ar
  43   23   26 ar
  44   23   53 1
  45   24   26 ar
  46   24   54 1
  47   25   55 1
  48   26   56 1
  49   27   57 1
  50   27   58 1
  51   27   59 1
  52   28   29 am
  53   28   30 2
  54   29   31 1
  55   29   60 1
  56   31   32 1
  57   31   61 1
  58   31   62 1
  59   32   33 1
  60   32   63 1
  61   32   64 1
  62   33   34 1
  63   33   65 1
  64   33   66 1
  65   34   35 am
  66   34   38 1
  67   35   36 1
  68   35   39 2
  69   36   37 1
  70   36   67 1
  71   36   68 1
  72   37   38 1
  73   37   69 1
  74   37   70 1
  75   38   71 1
  76   38   72 1

#	End of record

