#	Name: ASD01883423
#	Creating user name:	WinNT
#	Creation time:	15. 06. 2019 19:46

#	Modifying user name:	WinNT
#	Modification time:	15. 06. 2019 19:46

#	Program:	/corina/corina34_cracker 3.40 0067  02.08.2006

@<TRIPOS>MOLECULE
ASD01883423
  58   59    0    0    0
SMALL
NO_CHARGES


@<TRIPOS>ATOM
   1 N1            -0.0162     1.3424     0.0094 N.am    
   2 C2             0.0021    -0.0041     0.0020 C.2     
   3 C3            -1.2200    -0.7260     0.0103 C.2     
   4 C4            -2.4186    -0.0172     0.0260 C.2     
   5 C5            -2.3789     1.3778     0.0331 C.2     
   6 C6            -1.1865     2.0253     0.0299 C.2     
   7 O7             1.0648    -0.6011    -0.0121 O.2     
   8 C8            -1.2204    -2.1580     0.0021 C.1     
   9 N9            -1.2207    -3.2939    -0.0043 N.1     
  10 C10           -3.7381    -0.7452     0.0347 C.3     
  11 C11           -4.5208    -0.3669     1.2942 C.3     
  12 C12           -5.8460    -1.1350     1.3169 C.3     
  13 N13           -6.5633    -0.8778     0.0607 N.am    
  14 C14           -5.8699    -1.1219    -1.2114 C.3     
  15 C15           -4.5444    -0.3540    -1.2058 C.3     
  16 C16            1.2492     2.0805     0.0013 C.3     
  17 C17            1.6760     2.3452    -1.4439 C.3     
  18 C18            2.9975     3.1162    -1.4524 C.3     
  19 C19            3.4877     3.2723    -2.8933 C.3     
  20 C20            2.7852     4.4991    -0.8333 C.3     
  21 C21           -7.8333    -0.4268     0.0751 C.2     
  22 O22           -8.4786    -0.1954    -1.0837 O.3     
  23 O23           -8.3960    -0.2292     1.1338 O.2     
  24 C24           -9.8443     0.2893    -0.9923 C.3     
  25 C25           -9.8636     1.6203    -0.2380 C.3     
  26 C26          -10.4086     0.4926    -2.3998 C.3     
  27 C27          -10.6996    -0.7341    -0.2428 C.3     
  28 H28           -3.2991     1.9430     0.0453 H       
  29 H29           -1.1699     3.1052     0.0358 H       
  30 H30           -3.5596    -1.8204     0.0273 H       
  31 H31           -3.9358    -0.6245     2.1771 H       
  32 H32           -4.7213     0.7045     1.2899 H       
  33 H33           -5.6480    -2.2026     1.4126 H       
  34 H34           -6.4502    -0.7964     2.1586 H       
  35 H35           -5.6739    -2.1884    -1.3219 H       
  36 H36           -6.4899    -0.7747    -2.0380 H       
  37 H37           -4.7447     0.7173    -1.1866 H       
  38 H38           -3.9763    -0.6023    -2.1023 H       
  39 H39            1.1196     3.0296     0.5215 H       
  40 H40            2.0163     1.4921     0.5047 H       
  41 H41            1.8056     1.3962    -1.9641 H       
  42 H42            0.9088     2.9337    -1.9473 H       
  43 H43            3.7411     2.5690    -0.8730 H       
  44 H44            2.7441     3.8195    -3.4728 H       
  45 H45            4.4292     3.8215    -2.8994 H       
  46 H46            3.6389     2.2870    -3.3344 H       
  47 H47            2.0416     5.0463    -1.4127 H       
  48 H48            2.4360     4.3879     0.1933 H       
  49 H49            3.7267     5.0483    -0.8393 H       
  50 H50           -9.2542     2.3495    -0.7720 H       
  51 H51          -10.8888     1.9842    -0.1694 H       
  52 H52           -9.4616     1.4756     0.7648 H       
  53 H53          -10.3948    -0.4557    -2.9372 H       
  54 H54          -11.4338     0.8564    -2.3312 H       
  55 H55           -9.7992     1.2217    -2.9338 H       
  56 H56          -10.2976    -0.8789     0.7600 H       
  57 H57          -11.7248    -0.3702    -0.1741 H       
  58 H58          -10.6858    -1.6823    -0.7801 H       
@<TRIPOS>BOND
   1    1    2 am
   2    1   16 1
   3    1    6 1
   4    2    3 1
   5    2    7 2
   6    3    4 2
   7    3    8 1
   8    4    5 1
   9    4   10 1
  10    5    6 2
  11    5   28 1
  12    6   29 1
  13    8    9 3
  14   10   11 1
  15   10   15 1
  16   10   30 1
  17   11   12 1
  18   11   31 1
  19   11   32 1
  20   12   13 1
  21   12   33 1
  22   12   34 1
  23   13   14 1
  24   13   21 am
  25   14   15 1
  26   14   35 1
  27   14   36 1
  28   15   37 1
  29   15   38 1
  30   16   17 1
  31   16   39 1
  32   16   40 1
  33   17   18 1
  34   17   41 1
  35   17   42 1
  36   18   19 1
  37   18   20 1
  38   18   43 1
  39   19   44 1
  40   19   45 1
  41   19   46 1
  42   20   47 1
  43   20   48 1
  44   20   49 1
  45   21   22 1
  46   21   23 2
  47   22   24 1
  48   24   25 1
  49   24   26 1
  50   24   27 1
  51   25   50 1
  52   25   51 1
  53   25   52 1
  54   26   53 1
  55   26   54 1
  56   26   55 1
  57   27   56 1
  58   27   57 1
  59   27   58 1

#	End of record

