#	Name: ASD05730074
#	Creating user name:	WinNT
#	Creation time:	15. 06. 2019 21:02

#	Modifying user name:	WinNT
#	Modification time:	15. 06. 2019 21:02

#	Program:	/corina/corina34_cracker 3.40 0067  02.08.2006

@<TRIPOS>MOLECULE
ASD05730074
  75   80    0    0    0
SMALL
NO_CHARGES


@<TRIPOS>ATOM
   1 O1            -0.0081     1.0228     0.8536 O.3     
   2 C2             0.1304    -0.2571     0.4157 C.ar    
   3 C3            -0.8145    -0.8028    -0.4408 C.ar    
   4 C4            -0.6743    -2.1024    -0.8864 C.ar    
   5 C5             0.4130    -2.8629    -0.4768 C.ar    
   6 C6             1.3585    -2.3159     0.3806 C.ar    
   7 C7             1.2196    -1.0144     0.8211 C.ar    
   8 N8             0.5556    -4.1808    -0.9277 N.pl3   
   9 C9             1.8153    -4.7013    -1.1529 C.ar    
  10 N10            1.9294    -5.9833    -1.4645 N.ar    
  11 C11            3.1237    -6.5197    -1.6881 C.ar    
  12 C12            4.2663    -5.6966    -1.5868 C.ar    
  13 C13            4.0924    -4.3449    -1.2538 C.ar    
  14 N14            2.8674    -3.8961    -1.0540 N.ar    
  15 N15            3.2513    -7.8471    -2.0111 N.am    
  16 C16            4.4651    -8.3859    -2.2359 C.2     
  17 C17            5.6706    -7.5601    -2.1386 C.2     
  18 C18            5.5530    -6.2341    -1.8187 C.2     
  19 C19            2.0552    -8.6869    -2.1119 C.3     
  20 C20            1.9531    -9.2613    -3.5264 C.3     
  21 O21            4.5606    -9.5663    -2.5213 O.2     
  22 C22            7.0053    -8.1540    -2.3853 C.ar    
  23 C23           -1.2073     1.7078     0.4867 C.3     
  24 C24            7.5909    -8.9815    -1.4285 C.ar    
  25 C25            2.1496    -9.8323    -1.1020 C.3     
  26 C26           -1.4783     2.8360     1.4857 C.3     
  27 C27           -2.7295     3.6041     1.0535 C.3     
  28 N28           -2.5261     4.1559    -0.2921 N.3     
  29 C29           -2.3110     3.0882    -1.2770 C.3     
  30 C30           -1.0474     2.3047    -0.9143 C.3     
  31 C31            8.9246    -8.4492    -3.8029 C.ar    
  32 C32            9.5014    -9.2643    -2.8456 C.ar    
  33 C33            8.8346    -9.5320    -1.6636 C.ar    
  34 C34            7.6799    -7.8917    -3.5799 C.ar    
  35 F35            7.1168    -7.0957    -4.5151 F       
  36 S36           11.0885    -9.9720    -3.1370 S.o2    
  37 O37           11.2595   -10.0067    -4.5472 O.2     
  38 C38           12.2868    -8.8380    -2.5182 C.ar    
  39 O39           11.1690   -11.1288    -2.3156 O.2     
  40 C40           12.7263    -8.9160    -1.2055 C.ar    
  41 C41           12.8168    -7.8502    -3.3341 C.ar    
  42 C42           13.7548    -6.9786    -2.8138 C.ar    
  43 N43           14.1459    -7.0792    -1.5585 N.ar    
  44 C44           13.6672    -8.0093    -0.7554 C.ar    
  45 H45           -1.6603    -0.2113    -0.7590 H       
  46 H46           -1.4103    -2.5272    -1.5529 H       
  47 H47            2.2044    -2.9067     0.6997 H       
  48 H48            1.9550    -0.5887     1.4877 H       
  49 H49           -0.2300    -4.7283    -1.0821 H       
  50 H50            4.9426    -3.6846    -1.1668 H       
  51 H51            6.4302    -5.6088    -1.7421 H       
  52 H52            1.1707    -8.0866    -1.8989 H       
  53 H53            2.8376    -9.8616    -3.7395 H       
  54 H54            1.0631    -9.8861    -3.6014 H       
  55 H55            1.8858    -8.4453    -4.2459 H       
  56 H56           -2.0429     1.0079     0.4922 H       
  57 H57            7.0725    -9.1913    -0.5046 H       
  58 H58            2.2223    -9.4231    -0.0943 H       
  59 H59            1.2596   -10.4572    -1.1770 H       
  60 H60            3.0341   -10.4326    -1.3151 H       
  61 H61           -1.6355     2.4134     2.4781 H       
  62 H62           -0.6252     3.5140     1.5093 H       
  63 H63           -3.5849     2.9286     1.0435 H       
  64 H64           -2.9170     4.4170     1.7549 H       
  65 H65           -3.2989     4.7460    -0.5615 H       
  66 H66           -3.1684     2.4151    -1.2761 H       
  67 H67           -2.1946     3.5264    -2.2682 H       
  68 H68           -0.1874     2.9743    -0.9285 H       
  69 H69           -0.8966     1.5025    -1.6366 H       
  70 H70            9.4503    -8.2436    -4.7237 H       
  71 H71            9.2886   -10.1731    -0.9225 H       
  72 H72           12.3380    -9.6754    -0.5431 H       
  73 H73           12.5010    -7.7631    -4.3632 H       
  74 H74           14.1725    -6.2063    -3.4427 H       
  75 H75           14.0115    -8.0606     0.2669 H       
@<TRIPOS>BOND
   1    1    2 1
   2    1   23 1
   3    2    3 ar
   4    2    7 ar
   5    3    4 ar
   6    3   45 1
   7    4    5 ar
   8    4   46 1
   9    5    6 ar
  10    5    8 1
  11    6    7 ar
  12    6   47 1
  13    7   48 1
  14    8    9 1
  15    8   49 1
  16    9   10 ar
  17    9   14 ar
  18   10   11 ar
  19   11   12 ar
  20   11   15 1
  21   12   13 ar
  22   12   18 1
  23   13   14 ar
  24   13   50 1
  25   15   16 am
  26   15   19 1
  27   16   17 1
  28   16   21 2
  29   17   18 2
  30   17   22 1
  31   18   51 1
  32   19   20 1
  33   19   25 1
  34   19   52 1
  35   20   53 1
  36   20   54 1
  37   20   55 1
  38   22   34 ar
  39   22   24 ar
  40   23   26 1
  41   23   30 1
  42   23   56 1
  43   24   33 ar
  44   24   57 1
  45   25   58 1
  46   25   59 1
  47   25   60 1
  48   26   27 1
  49   26   61 1
  50   26   62 1
  51   27   28 1
  52   27   63 1
  53   27   64 1
  54   28   29 1
  55   28   65 1
  56   29   30 1
  57   29   66 1
  58   29   67 1
  59   30   68 1
  60   30   69 1
  61   31   32 ar
  62   31   34 ar
  63   31   70 1
  64   32   33 ar
  65   32   36 1
  66   33   71 1
  67   34   35 1
  68   36   37 2
  69   36   38 1
  70   36   39 2
  71   38   40 ar
  72   38   41 ar
  73   40   44 ar
  74   40   72 1
  75   41   42 ar
  76   41   73 1
  77   42   43 ar
  78   42   74 1
  79   43   44 ar
  80   44   75 1

#	End of record

