#	Name: ASD01912440
#	Creating user name:	WinNT
#	Creation time:	15. 06. 2019 19:59

#	Modifying user name:	WinNT
#	Modification time:	15. 06. 2019 19:59

#	Program:	/corina/corina34_cracker 3.40 0067  02.08.2006

@<TRIPOS>MOLECULE
ASD01912440
  52   54    0    0    0
SMALL
NO_CHARGES


@<TRIPOS>ATOM
   1 C1            -0.0491     1.5752    -0.0357 C.3     
   2 C2            -0.0198     0.0455    -0.0292 C.3     
   3 C3             0.6940    -0.4265     1.1685 C.1     
   4 C4             1.2633    -0.8029     2.1237 C.1     
   5 O5            -1.3576    -0.4565    -0.0152 O.3     
   6 C6             1.9577    -1.2621     3.2889 C.ar    
   7 C7             2.1104    -2.6315     3.5092 C.ar    
   8 C8             2.7837    -3.0592     4.6395 C.ar    
   9 C9             3.2834    -2.1044     5.5145 C.ar    
  10 C10            3.0963    -0.7633     5.2350 C.ar    
  11 N11            2.4561    -0.3813     4.1488 N.ar    
  12 C12            3.6370     0.2759     6.1830 C.3     
  13 N13            0.6458    -1.9950    -3.7255 N.3     
  14 C14            1.3970    -2.4836    -2.5622 C.3     
  15 C15            0.7302    -1.9869    -1.2774 C.3     
  16 C16            0.7001    -0.4560    -1.2827 C.3     
  17 C17           -0.0459     0.0277    -2.5293 C.3     
  18 C18            0.6434    -0.5274    -3.7778 C.3     
  19 C19            1.1468    -2.5346    -4.9045 C.ar    
  20 C20            0.3513    -3.3848    -5.6663 C.ar    
  21 C21            0.8623    -3.9142    -6.8373 C.ar    
  22 C22            2.1566    -3.5744    -7.2089 C.ar    
  23 C23            2.8898    -2.7250    -6.4053 C.ar    
  24 N24            2.3747    -2.2306    -5.2954 N.ar    
  25 N25           -0.9067    -3.6903    -5.2660 N.pl3   
  26 O26           -1.6311    -4.3530    -5.9869 O.2     
  27 O27           -1.3130    -3.3023    -4.1853 O.2     
  28 C28            4.2950    -2.3531    -6.8031 C.3     
  29 H29            0.9713     1.9582    -0.0464 H       
  30 H30           -0.5777     1.9247    -0.9226 H       
  31 H31           -0.5620     1.9326     0.8573 H       
  32 H32           -1.4154    -1.4218    -0.0105 H       
  33 H33            1.7083    -3.3473     2.8074 H       
  34 H34            2.9173    -4.1126     4.8370 H       
  35 H35            3.8134    -2.4064     6.4058 H       
  36 H36            4.6529     0.5413     5.8901 H       
  37 H37            3.0052     1.1634     6.1481 H       
  38 H38            3.6442    -0.1254     7.1964 H       
  39 H39            1.4071    -3.5736    -2.5682 H       
  40 H40            2.4202    -2.1108    -2.6079 H       
  41 H41           -0.2886    -2.3707    -1.2243 H       
  42 H42            1.2969    -2.3368    -0.4145 H       
  43 H43            1.7200    -0.0717    -1.2953 H       
  44 H44           -1.0769    -0.3244    -2.4959 H       
  45 H45           -0.0337     1.1171    -2.5608 H       
  46 H46            1.6701    -0.1638    -3.8178 H       
  47 H47            0.1062    -0.1965    -4.6666 H       
  48 H48            0.2683    -4.5772    -7.4488 H       
  49 H49            2.5852    -3.9712    -8.1174 H       
  50 H50            4.2720    -1.4562    -7.4221 H       
  51 H51            4.8873    -2.1619    -5.9083 H       
  52 H52            4.7419    -3.1721    -7.3665 H       
@<TRIPOS>BOND
   1    1    2 1
   2    1   29 1
   3    1   30 1
   4    1   31 1
   5    2    3 1
   6    2    5 1
   7    2   16 1
   8    3    4 3
   9    4    6 1
  10    5   32 1
  11    6    7 ar
  12    6   11 ar
  13    7    8 ar
  14    7   33 1
  15    8    9 ar
  16    8   34 1
  17    9   10 ar
  18    9   35 1
  19   10   11 ar
  20   10   12 1
  21   12   36 1
  22   12   37 1
  23   12   38 1
  24   13   14 1
  25   13   18 1
  26   13   19 1
  27   14   15 1
  28   14   39 1
  29   14   40 1
  30   15   16 1
  31   15   41 1
  32   15   42 1
  33   16   17 1
  34   16   43 1
  35   17   18 1
  36   17   44 1
  37   17   45 1
  38   18   46 1
  39   18   47 1
  40   19   20 ar
  41   19   24 ar
  42   20   21 ar
  43   20   25 1
  44   21   22 ar
  45   21   48 1
  46   22   23 ar
  47   22   49 1
  48   23   24 ar
  49   23   28 1
  50   25   26 2
  51   25   27 2
  52   28   50 1
  53   28   51 1
  54   28   52 1

#	End of record

