#	Name: ASD03430082
#	Creating user name:	WinNT
#	Creation time:	15. 06. 2019 20:40

#	Modifying user name:	WinNT
#	Modification time:	15. 06. 2019 20:40

#	Program:	/corina/corina34_cracker 3.40 0067  02.08.2006

@<TRIPOS>MOLECULE
ASD03430082
  48   53    0    0    0
SMALL
NO_CHARGES


@<TRIPOS>ATOM
   1 C1             0.7435     1.3290    -0.6017 C.ar    
   2 C2             0.6995    -0.0560    -0.5454 C.ar    
   3 C3             1.8458    -0.7766    -0.2865 C.ar    
   4 C4             3.0575    -0.1267    -0.0691 C.ar    
   5 C5             3.0990     1.2621    -0.1307 C.ar    
   6 C6             1.9491     1.9881    -0.3942 C.ar    
   7 O7             4.0550    -1.0180     0.1963 O.3     
   8 C8             2.1260    -2.2519    -0.1847 C.3     
   9 C9             3.6574    -2.3261    -0.2571 C.3     
  10 C10            0.7345    -3.8684     0.6928 C.ar    
  11 C11            1.5959    -2.8480     1.0854 C.ar    
  12 C12            1.4775    -3.0328    -1.2916 C.2     
  13 N13            0.6872    -3.9513    -0.7010 N.am    
  14 O14            1.6338    -2.8687    -2.4831 O.2     
  15 C15            1.8005    -2.5780     2.4249 C.ar    
  16 C16            1.1441    -3.3291     3.3917 C.ar    
  17 C17            0.2882    -4.3437     3.0084 C.ar    
  18 C18            0.0816    -4.6147     1.6711 C.ar    
  19 O19            2.6434    -1.5788     2.7962 O.3     
  20 C20           -0.1262    -4.9236    -1.4353 C.3     
  21 O21           -0.3967     2.0250    -0.8657 O.3     
  22 C22           -0.3858     3.4216    -0.5505 C.3     
  23 C23            0.9243     4.0224    -1.0778 C.3     
  24 O24            2.0151     3.3472    -0.4430 O.3     
  25 C25            2.1340    -0.3269     2.9149 C.ar    
  26 C26            2.9710     0.7264     3.2614 C.ar    
  27 N27            0.8464    -0.1200     2.6944 N.ar    
  28 C28            0.3104     1.0812     2.7988 C.ar    
  29 C29            1.0818     2.1728     3.1444 C.ar    
  30 C30            2.4390     1.9984     3.3792 C.ar    
  31 H31           -0.2360    -0.5717    -0.7044 H       
  32 H32            4.0343     1.7781     0.0283 H       
  33 H33            3.9886    -2.4980    -1.2812 H       
  34 H34            4.0394    -3.0994     0.4094 H       
  35 H35            1.3026    -3.1208     4.4395 H       
  36 H36           -0.2224    -4.9278     3.7597 H       
  37 H37           -0.5896    -5.4097     1.3815 H       
  38 H38           -1.1112    -4.4997    -1.6304 H       
  39 H39            0.3599    -5.1636    -2.3809 H       
  40 H40           -0.2324    -5.8311    -0.8408 H       
  41 H41           -1.2339     3.9128    -1.0276 H       
  42 H42           -0.4430     3.5551     0.5298 H       
  43 H43            0.9846     3.8825    -2.1571 H       
  44 H44            0.9623     5.0858    -0.8416 H       
  45 H45            4.0228     0.5548     3.4369 H       
  46 H46           -0.7451     1.2122     2.6113 H       
  47 H47            0.6351     3.1526     3.2270 H       
  48 H48            3.0645     2.8358     3.6509 H       
@<TRIPOS>BOND
   1    1    2 ar
   2    1    6 ar
   3    1   21 1
   4    2    3 ar
   5    2   31 1
   6    3    4 ar
   7    3    8 1
   8    4    5 ar
   9    4    7 1
  10    5    6 ar
  11    5   32 1
  12    6   24 1
  13    7    9 1
  14    8    9 1
  15    8   11 1
  16    8   12 1
  17    9   33 1
  18    9   34 1
  19   10   11 ar
  20   10   13 1
  21   10   18 ar
  22   11   15 ar
  23   12   13 am
  24   12   14 2
  25   13   20 1
  26   15   16 ar
  27   15   19 1
  28   16   17 ar
  29   16   35 1
  30   17   18 ar
  31   17   36 1
  32   18   37 1
  33   19   25 1
  34   20   38 1
  35   20   39 1
  36   20   40 1
  37   21   22 1
  38   22   23 1
  39   22   41 1
  40   22   42 1
  41   23   24 1
  42   23   43 1
  43   23   44 1
  44   25   27 ar
  45   25   26 ar
  46   26   30 ar
  47   26   45 1
  48   27   28 ar
  49   28   29 ar
  50   28   46 1
  51   29   30 ar
  52   29   47 1
  53   30   48 1

#	End of record

