#	Name: ASD02508213
#	Creating user name:	WinNT
#	Creation time:	15. 06. 2019 20:24

#	Modifying user name:	WinNT
#	Modification time:	15. 06. 2019 20:24

#	Program:	/corina/corina34_cracker 3.40 0067  02.08.2006

@<TRIPOS>MOLECULE
ASD02508213
  33   35    0    0    0
SMALL
NO_CHARGES


@<TRIPOS>ATOM
   1 C1             0.2485     0.6122    -0.3442 C.ar    
   2 C2             0.0013    -0.7456    -0.5453 C.ar    
   3 C3            -1.2921    -1.2322    -0.4366 C.ar    
   4 C4            -2.3283    -0.3719    -0.1301 C.ar    
   5 C5            -2.0820     0.9755     0.0688 C.ar    
   6 C6            -0.7956     1.4687    -0.0320 C.ar    
   7 S7            -3.9716    -0.9925     0.0076 S.o2    
   8 N8            -4.2470    -1.2990     1.6115 N.am    
   9 C9            -3.4673    -2.2408     2.2865 C.ar    
  10 N10            1.6199     0.7975    -0.5174 N.am    
  11 C11            2.1573    -0.4037    -0.8088 C.2     
  12 O12            1.1897    -1.3338    -0.8268 O.3     
  13 O13           -4.8358     0.0771    -0.3508 O.2     
  14 O14           -3.9809    -2.2526    -0.6491 O.2     
  15 C15            2.3439     2.0659    -0.4036 C.3     
  16 O16            3.3361    -0.6124    -1.0223 O.2     
  17 C17           -2.9434    -1.9420     3.5377 C.ar    
  18 C18           -3.2192    -3.4799     1.7102 C.ar    
  19 C19           -2.4475    -4.4109     2.3802 C.ar    
  20 C20           -1.9221    -4.1097     3.6241 C.ar    
  21 C21           -2.1720    -2.8768     4.2040 C.ar    
  22 F22           -1.6576    -2.5854     5.4187 F       
  23 Cl23          -2.1378    -5.9599     1.6602 Cl      
  24 H24           -1.4893    -2.2826    -0.5916 H       
  25 H25           -2.8972     1.6425     0.3074 H       
  26 H26           -0.6052     2.5203     0.1239 H       
  27 H27           -4.9499    -0.8244     2.0822 H       
  28 H28            2.6737     2.2049     0.6260 H       
  29 H29            3.2110     2.0499    -1.0638 H       
  30 H30            1.6857     2.8868    -0.6881 H       
  31 H31           -3.1379    -0.9806     3.9897 H       
  32 H32           -3.6292    -3.7160     0.7394 H       
  33 H33           -1.3195    -4.8386     4.1457 H       
@<TRIPOS>BOND
   1    1    2 ar
   2    1   10 1
   3    1    6 ar
   4    2    3 ar
   5    2   12 1
   6    3    4 ar
   7    3   24 1
   8    4    5 ar
   9    4    7 1
  10    5    6 ar
  11    5   25 1
  12    6   26 1
  13    7    8 am
  14    7   13 2
  15    7   14 2
  16    8    9 1
  17    8   27 1
  18    9   17 ar
  19    9   18 ar
  20   10   11 am
  21   10   15 1
  22   11   12 1
  23   11   16 2
  24   15   28 1
  25   15   29 1
  26   15   30 1
  27   17   21 ar
  28   17   31 1
  29   18   19 ar
  30   18   32 1
  31   19   20 ar
  32   19   23 1
  33   20   21 ar
  34   20   33 1
  35   21   22 1

#	End of record

