#	Name: ASD09116188
#	Creating user name:	WinNT
#	Creation time:	15. 06. 2019 21:21

#	Modifying user name:	WinNT
#	Modification time:	15. 06. 2019 21:21

#	Program:	/corina/corina34_cracker 3.40 0067  02.08.2006

@<TRIPOS>MOLECULE
ASD09116188
  59   64    0    0    0
SMALL
NO_CHARGES


@<TRIPOS>ATOM
   1 N1            -0.0266     1.4808     0.1051 N.2     
   2 C2            -0.0140     0.0097     0.1909 C.3     
   3 C3             1.2225     1.8593     0.0812 C.2     
   4 N4             2.0842     0.8235     0.1403 N.2     
   5 C5             1.4646    -0.3259     0.2082 C.2     
   6 N6             1.6191     3.1791     0.0037 N.pl3   
   7 C7             2.9774     3.5091     0.0982 C.ar    
   8 C8             3.4715     4.6166    -0.5783 C.ar    
   9 C9             3.8283     2.7320     0.8730 C.ar    
  10 C10            5.1669     3.0574     0.9666 C.ar    
  11 C11            5.6623     4.1617     0.2855 C.ar    
  12 C12            4.8101     4.9419    -0.4851 C.ar    
  13 N13            2.0278    -1.5619     0.2800 N.pl3   
  14 C14           -0.6793    -0.4545     1.4608 C.ar    
  15 C15           -1.5563    -1.5148     1.4483 C.ar    
  16 N16           -0.4283     0.1468     2.6170 N.ar    
  17 C17           -1.0080    -0.2558     3.7301 C.ar    
  18 N18           -1.8589    -1.2665     3.7509 N.ar    
  19 C19           -2.1496    -1.9113     2.6426 C.ar    
  20 N20            7.0188     4.4918     0.3807 N.3     
  21 C21            7.3266     5.6889    -0.4143 C.3     
  22 C22            8.7982     6.0621    -0.2207 C.3     
  23 N23            9.6450     4.9318    -0.6266 N.3     
  24 C24            9.3373     3.7348     0.1684 C.3     
  25 C25            7.8657     3.3615    -0.0252 C.3     
  26 C26           -3.0663    -3.0920     2.3250 C.3     
  27 C27           -2.0873    -4.2614     1.9881 C.3     
  28 C28           -1.4216    -3.8236     0.6613 C.3     
  29 C29           -2.0773    -2.4362     0.3481 C.3     
  30 C30           -3.5344    -2.6937     0.8765 C.3     
  31 C31           11.0691     5.2784    -0.5267 C.3     
  32 H32           -0.5005    -0.4304    -0.6796 H       
  33 H33            0.9574     3.8781    -0.1163 H       
  34 H34            2.8088     5.2232    -1.1776 H       
  35 H35            3.4431     1.8733     1.4026 H       
  36 H36            5.8286     2.4534     1.5698 H       
  37 H37            5.1954     5.8004    -1.0151 H       
  38 H38            2.9932    -1.6556     0.2842 H       
  39 H39            1.4639    -2.3498     0.3271 H       
  40 H40           -0.7804     0.2559     4.6535 H       
  41 H41            7.1391     5.4835    -1.4682 H       
  42 H42            6.6957     6.5151    -0.0866 H       
  43 H43            9.0360     6.9326    -0.8321 H       
  44 H44            8.9795     6.2939     0.8288 H       
  45 H45            9.9682     2.9085    -0.1593 H       
  46 H46            9.5248     3.9401     1.2223 H       
  47 H47            7.6279     2.4910     0.5862 H       
  48 H48            7.6843     3.1297    -1.0747 H       
  49 H49           -3.8427    -3.3101     3.0583 H       
  50 H50           -1.3389    -4.3711     2.7729 H       
  51 H51           -2.6372    -5.1923     1.8505 H       
  52 H52           -0.3445    -3.7180     0.7910 H       
  53 H53           -1.6436    -4.5381    -0.1314 H       
  54 H54           -1.9720    -2.0733    -0.6744 H       
  55 H55           -4.0236    -3.5186     0.3585 H       
  56 H56           -4.1431    -1.7895     0.8718 H       
  57 H57           11.3075     5.5414     0.5039 H       
  58 H58           11.6732     4.4244    -0.8328 H       
  59 H59           11.2831     6.1266    -1.1769 H       
@<TRIPOS>BOND
   1    1    2 1
   2    1    3 2
   3    2   14 1
   4    2    5 1
   5    2   32 1
   6    3    4 1
   7    3    6 1
   8    4    5 2
   9    5   13 1
  10    6    7 1
  11    6   33 1
  12    7    8 ar
  13    7    9 ar
  14    8   12 ar
  15    8   34 1
  16    9   10 ar
  17    9   35 1
  18   10   11 ar
  19   10   36 1
  20   11   12 ar
  21   11   20 1
  22   12   37 1
  23   13   38 1
  24   13   39 1
  25   14   15 ar
  26   14   16 ar
  27   15   19 ar
  28   15   29 1
  29   16   17 ar
  30   17   18 ar
  31   17   40 1
  32   18   19 ar
  33   19   26 1
  34   20   21 1
  35   20   25 1
  36   21   22 1
  37   21   41 1
  38   21   42 1
  39   22   23 1
  40   22   43 1
  41   22   44 1
  42   23   24 1
  43   23   31 1
  44   24   25 1
  45   24   45 1
  46   24   46 1
  47   25   47 1
  48   25   48 1
  49   26   27 1
  50   26   30 1
  51   26   49 1
  52   27   28 1
  53   27   50 1
  54   27   51 1
  55   28   29 1
  56   28   52 1
  57   28   53 1
  58   29   30 1
  59   29   54 1
  60   30   55 1
  61   30   56 1
  62   31   57 1
  63   31   58 1
  64   31   59 1

#	End of record

