#	Name: ASD07931591
#	Creating user name:	WinNT
#	Creation time:	15. 06. 2019 21:13

#	Modifying user name:	WinNT
#	Modification time:	15. 06. 2019 21:13

#	Program:	/corina/corina34_cracker 3.40 0067  02.08.2006

@<TRIPOS>MOLECULE
ASD07931591
  65   70    0    0    0
SMALL
NO_CHARGES


@<TRIPOS>ATOM
   1 N1            -0.0178     1.4650     0.0101 N.am    
   2 C2             0.0021    -0.0041     0.0020 C.3     
   3 C3             0.8803    -0.4916     1.1586 C.3     
   4 C4             2.2627     0.1563     1.0525 C.3     
   5 C5             2.1248     1.6768     1.1584 C.3     
   6 C6             1.2607     2.1889     0.0018 C.3     
   7 C7            -1.1868     2.1359     0.0193 C.2     
   8 O8            -2.2375     1.5256     0.0210 O.2     
   9 O9            -1.1902     3.4822     0.0266 O.3     
  10 C10            3.1537    -0.3549     2.1863 C.3     
  11 N11            4.5103     0.1716     2.0167 N.pl3   
  12 C12            4.8186     1.3452     2.5917 C.2     
  13 C13            6.0691     1.8996     2.4755 C.2     
  14 C14            7.1081     1.1877     1.6970 C.2     
  15 C15            6.7277    -0.0991     1.0837 C.ar    
  16 C16            7.6341    -0.8424     0.3340 C.ar    
  17 C17            7.2396    -2.0412    -0.2227 C.ar    
  18 C18            5.9463    -2.5038    -0.0372 C.ar    
  19 C19            5.0387    -1.7760     0.7034 C.ar    
  20 C20            5.4172    -0.5662     1.2757 C.ar    
  21 N21            7.9850     3.0752     2.4859 N.am    
  22 N22            8.1890     1.9125     1.7386 N.2     
  23 C23            6.7189     3.1158     2.9541 C.2     
  24 O24            6.2187     3.9929     3.6394 O.2     
  25 C25            8.9555     4.0584     2.7170 C.ar    
  26 C26           10.1807     3.7109     3.2767 C.ar    
  27 C27           11.1358     4.6847     3.5031 C.ar    
  28 C28           10.8732     6.0021     3.1735 C.ar    
  29 C29            9.6561     6.3497     2.6176 C.ar    
  30 C30            8.6992     5.3810     2.3828 C.ar    
  31 F31           10.4368     2.4241     3.5989 F       
  32 C32           -2.4856     4.1381     0.0364 C.3     
  33 C33           -2.2920     5.6326     0.0436 C.ar    
  34 C34           -2.2089     6.3245    -1.1503 C.ar    
  35 C35           -2.0312     7.6954    -1.1437 C.ar    
  36 C36           -1.9371     8.3743     0.0568 C.ar    
  37 C37           -2.0212     7.6825     1.2506 C.ar    
  38 C38           -2.2031     6.3122     1.2440 C.ar    
  39 H39           -1.0118    -0.3840     0.1278 H       
  40 H40            0.4128    -0.3587    -0.9433 H       
  41 H41            0.4202    -0.2139     2.1069 H       
  42 H42            0.9816    -1.5757     1.1066 H       
  43 H43            2.7120    -0.1016     0.0934 H       
  44 H44            1.6530     1.9341     2.1067 H       
  45 H45            3.1119     2.1361     1.1062 H       
  46 H46            1.7740     2.0131    -0.9436 H       
  47 H47            1.0772     3.2560     0.1274 H       
  48 H48            2.7515    -0.0214     3.1430 H       
  49 H49            3.1813    -1.4443     2.1637 H       
  50 H50            4.0629     1.8668     3.1602 H       
  51 H51            8.6418    -0.4822     0.1884 H       
  52 H52            7.9404    -2.6209    -0.8052 H       
  53 H53            5.6463    -3.4434    -0.4772 H       
  54 H54            4.0335    -2.1465     0.8403 H       
  55 H55           12.0873     4.4166     3.9379 H       
  56 H56           11.6207     6.7611     3.3512 H       
  57 H57            9.4545     7.3796     2.3623 H       
  58 H58            7.7508     5.6534     1.9436 H       
  59 H59           -3.0461     3.8486    -0.8526 H       
  60 H60           -3.0376     3.8389     0.9274 H       
  61 H61           -2.2824     5.7940    -2.0881 H       
  62 H62           -1.9656     8.2359    -2.0764 H       
  63 H63           -1.7976     9.4453     0.0619 H       
  64 H64           -1.9473     8.2130     2.1885 H       
  65 H65           -2.2725     5.7722     2.1767 H       
@<TRIPOS>BOND
   1    1    2 1
   2    1    6 1
   3    1    7 am
   4    2    3 1
   5    2   39 1
   6    2   40 1
   7    3    4 1
   8    3   41 1
   9    3   42 1
  10    4    5 1
  11    4   10 1
  12    4   43 1
  13    5    6 1
  14    5   44 1
  15    5   45 1
  16    6   46 1
  17    6   47 1
  18    7    8 2
  19    7    9 1
  20    9   32 1
  21   10   11 1
  22   10   48 1
  23   10   49 1
  24   11   12 1
  25   11   20 1
  26   12   13 2
  27   12   50 1
  28   13   14 1
  29   13   23 1
  30   14   15 1
  31   14   22 2
  32   15   16 ar
  33   15   20 ar
  34   16   17 ar
  35   16   51 1
  36   17   18 ar
  37   17   52 1
  38   18   19 ar
  39   18   53 1
  40   19   20 ar
  41   19   54 1
  42   21   22 1
  43   21   23 am
  44   21   25 1
  45   23   24 2
  46   25   26 ar
  47   25   30 ar
  48   26   27 ar
  49   26   31 1
  50   27   28 ar
  51   27   55 1
  52   28   29 ar
  53   28   56 1
  54   29   30 ar
  55   29   57 1
  56   30   58 1
  57   32   33 1
  58   32   59 1
  59   32   60 1
  60   33   34 ar
  61   33   38 ar
  62   34   35 ar
  63   34   61 1
  64   35   36 ar
  65   35   62 1
  66   36   37 ar
  67   36   63 1
  68   37   38 ar
  69   37   64 1
  70   38   65 1

#	End of record

