#	Name: ASD09116467
#	Creating user name:	WinNT
#	Creation time:	15. 06. 2019 21:21

#	Modifying user name:	WinNT
#	Modification time:	15. 06. 2019 21:21

#	Program:	/corina/corina34_cracker 3.40 0067  02.08.2006

@<TRIPOS>MOLECULE
ASD09116467
  75   81    0    0    0
SMALL
NO_CHARGES


@<TRIPOS>ATOM
   1 N1            -0.5658     3.9009     0.5885 N.2     
   2 N2            -1.0997     5.0529     1.1882 N.pl3   
   3 C3             0.7339     4.0666     0.5311 C.2     
   4 N4             1.0458     5.2555     1.0600 N.2     
   5 C5            -0.0501     5.8632     1.4613 C.2     
   6 N6            -0.1178     7.1085     2.0565 N.pl3   
   7 C7            -2.4463     5.3118     1.4502 C.ar    
   8 N8             1.6446     3.1506     0.0040 N.pl3   
   9 C9             2.9960     3.4903    -0.1007 C.ar    
  10 C10            3.9705     2.5042    -0.0088 C.ar    
  11 C11            3.3672     4.8142    -0.3027 C.ar    
  12 C12            4.7073     5.1390    -0.4046 C.ar    
  13 C13            5.6667     4.1642    -0.3085 C.ar    
  14 C14            5.3061     2.8417    -0.1129 C.ar    
  15 N15           -2.7834     6.1497     2.4191 N.ar    
  16 N16           -4.0078     6.4147     2.7074 N.ar    
  17 C17           -5.0117     5.8597     2.0475 C.ar    
  18 C18           -4.7515     4.9785     0.9941 C.ar    
  19 C19           -3.4384     4.6914     0.6866 C.ar    
  20 C20           -6.4232     6.1213     2.4127 C.ar    
  21 C21           -7.2881     5.0389     2.5812 C.ar    
  22 C22           -6.7542     3.6395     2.4434 C.3     
  23 C23           -6.5578     3.2603     0.9781 C.3     
  24 C24           -5.8921     4.3986     0.2094 C.3     
  25 C25           -6.8917     7.4193     2.5835 C.ar    
  26 C26           -8.2193     7.6307     2.9015 C.ar    
  27 C27           -9.0780     6.5563     3.0472 C.ar    
  28 C28           -8.6136     5.2622     2.8863 C.ar    
  29 C29            5.1092     6.5831    -0.6228 C.3     
  30 C30            5.6433     6.7274    -2.0500 C.3     
  31 C31            7.1173     6.3792    -2.1146 C.3     
  32 C32            7.4268     4.9152    -1.8718 C.3     
  33 C33            7.1331     4.5272    -0.4209 C.3     
  34 N34            7.6256     6.7489    -3.4424 N.3     
  35 C35            9.1080     6.6636    -3.4877 C.3     
  36 C36            9.4447     6.5378    -4.9890 C.3     
  37 C37            8.1715     5.9572    -5.6381 C.3     
  38 C38            7.1725     5.7810    -4.4743 C.3     
  39 C39            9.7242     7.9134    -2.9137 C.2     
  40 O40            9.0163     8.8014    -2.5013 O.2     
  41 O41           11.0595     8.0399    -2.8607 O.3     
  42 H42            0.6938     7.6165     2.2120 H       
  43 H43           -0.9769     7.4747     2.3186 H       
  44 H44            1.3397     2.2779    -0.2899 H       
  45 H45            3.6840     1.4742     0.1444 H       
  46 H46            2.6139     5.5843    -0.3798 H       
  47 H47            6.0658     2.0778    -0.0382 H       
  48 H48           -3.1863     4.0063    -0.1093 H       
  49 H49           -5.7975     3.5703     2.9610 H       
  50 H50           -7.4570     2.9430     2.9008 H       
  51 H51           -5.9295     2.3715     0.9186 H       
  52 H52           -7.5277     3.0439     0.5303 H       
  53 H53           -6.6280     5.1792     0.0164 H       
  54 H54           -5.5168     4.0182    -0.7406 H       
  55 H55           -6.2210     8.2579     2.4685 H       
  56 H56           -8.5874     8.6370     3.0371 H       
  57 H57          -10.1168     6.7279     3.2874 H       
  58 H58           -9.2896     4.4277     3.0006 H       
  59 H59            4.2414     7.2290    -0.4893 H       
  60 H60            5.8874     6.8583     0.0891 H       
  61 H61            5.0883     6.0599    -2.7093 H       
  62 H62            5.5033     7.7559    -2.3825 H       
  63 H63            7.6458     6.9727    -1.3686 H       
  64 H64            6.8154     4.3049    -2.5364 H       
  65 H65            8.4797     4.7315    -2.0856 H       
  66 H66            7.3532     5.3693     0.2352 H       
  67 H67            7.7452     3.6702    -0.1398 H       
  68 H68            9.4549     5.7840    -2.9453 H       
  69 H69            9.6710     7.5176    -5.4096 H       
  70 H70           10.2859     5.8597    -5.1329 H       
  71 H71            7.7728     6.6520    -6.3773 H       
  72 H72            8.3877     4.9942    -6.1006 H       
  73 H73            7.2165     4.7634    -4.0864 H       
  74 H74            6.1609     6.0205    -4.8021 H       
  75 H75           11.4081     8.8595    -2.4841 H       
@<TRIPOS>BOND
   1    1    2 1
   2    1    3 2
   3    2    7 1
   4    2    5 1
   5    3    4 1
   6    3    8 1
   7    4    5 2
   8    5    6 1
   9    6   42 1
  10    6   43 1
  11    7   15 ar
  12    7   19 ar
  13    8    9 1
  14    8   44 1
  15    9   10 ar
  16    9   11 ar
  17   10   14 ar
  18   10   45 1
  19   11   12 ar
  20   11   46 1
  21   12   13 ar
  22   12   29 1
  23   13   14 ar
  24   13   33 1
  25   14   47 1
  26   15   16 ar
  27   16   17 ar
  28   17   18 ar
  29   17   20 1
  30   18   19 ar
  31   18   24 1
  32   19   48 1
  33   20   21 ar
  34   20   25 ar
  35   21   22 1
  36   21   28 ar
  37   22   23 1
  38   22   49 1
  39   22   50 1
  40   23   24 1
  41   23   51 1
  42   23   52 1
  43   24   53 1
  44   24   54 1
  45   25   26 ar
  46   25   55 1
  47   26   27 ar
  48   26   56 1
  49   27   28 ar
  50   27   57 1
  51   28   58 1
  52   29   30 1
  53   29   59 1
  54   29   60 1
  55   30   31 1
  56   30   61 1
  57   30   62 1
  58   31   32 1
  59   31   34 1
  60   31   63 1
  61   32   33 1
  62   32   64 1
  63   32   65 1
  64   33   66 1
  65   33   67 1
  66   34   35 1
  67   34   38 1
  68   35   36 1
  69   35   39 1
  70   35   68 1
  71   36   37 1
  72   36   69 1
  73   36   70 1
  74   37   38 1
  75   37   71 1
  76   37   72 1
  77   38   73 1
  78   38   74 1
  79   39   40 2
  80   39   41 1
  81   41   75 1

#	End of record

