#	Name: ASD01410044
#	Creating user name:	WinNT
#	Creation time:	15. 06. 2019 19:16

#	Modifying user name:	WinNT
#	Modification time:	15. 06. 2019 19:16

#	Program:	/corina/corina34_cracker 3.40 0067  02.08.2006

@<TRIPOS>MOLECULE
ASD01410044
  42   43    0    0    0
SMALL
NO_CHARGES


@<TRIPOS>ATOM
   1 C1             0.3285     1.1519    -0.0747 C.ar    
   2 C2             0.1223    -0.2092    -0.0328 C.ar    
   3 C3            -1.1828    -0.7166     0.0006 C.ar    
   4 C4            -2.2726     0.1723    -0.0090 C.ar    
   5 C5            -2.0419     1.5418    -0.0515 C.ar    
   6 C6            -0.7503     2.0252    -0.0787 C.ar    
   7 N7            -3.5711    -0.3157     0.0233 N.pl3   
   8 C8            -4.6998     0.6121     0.1305 C.3     
   9 C9            -5.9902    -0.1663     0.1454 C.2     
  10 N10           -7.1677     0.4828     0.2387 N.am    
  11 C11           -8.3628    -0.2243     0.1337 C.ar    
  12 C12           -8.4037    -1.4259    -0.5601 C.ar    
  13 C13           -9.5896    -2.1253    -0.6631 C.ar    
  14 C14          -10.7457    -1.6358    -0.0774 C.ar    
  15 C15          -10.7245    -0.4446     0.6154 C.ar    
  16 C16           -9.5308     0.2715     0.7337 C.ar    
  17 C17           -9.5008     1.5459     1.4735 C.2     
  18 O18          -10.6013     1.9743     2.1224 O.3     
  19 O19           -8.4836     2.2101     1.4984 O.2     
  20 O20           -5.9691    -1.3767     0.0735 O.2     
  21 C21           -1.4111    -2.1646     0.0448 C.2     
  22 Cl22           1.9468     1.7789    -0.1154 Cl      
  23 C23           -0.2469    -3.1148    -0.0677 C.3     
  24 O24           -2.5373    -2.5975     0.1719 O.2     
  25 C25           -0.7557    -4.5558     0.0066 C.3     
  26 H26            0.9655    -0.8841    -0.0261 H       
  27 H27           -2.8750     2.2289    -0.0594 H       
  28 H28           -0.5772     3.0907    -0.1113 H       
  29 H29           -3.7315    -1.2711    -0.0252 H       
  30 H30           -4.6115     1.1867     1.0526 H       
  31 H31           -4.6947     1.2907    -0.7224 H       
  32 H32           -7.1827     1.4425     0.3789 H       
  33 H33           -7.5070    -1.8139    -1.0202 H       
  34 H34           -9.6163    -3.0597    -1.2039 H       
  35 H35          -11.6684    -2.1904    -0.1644 H       
  36 H36          -11.6287    -0.0673     1.0699 H       
  37 H37          -10.5333     2.8160     2.5937 H       
  38 H38            0.2601    -2.9572    -1.0196 H       
  39 H39            0.4506    -2.9332     0.7500 H       
  40 H40           -1.2627    -4.7135     0.9585 H       
  41 H41           -1.4532    -4.7375    -0.8111 H       
  42 H42            0.0864    -5.2431    -0.0748 H       
@<TRIPOS>BOND
   1    1    2 ar
   2    1   22 1
   3    1    6 ar
   4    2    3 ar
   5    2   26 1
   6    3    4 ar
   7    3   21 1
   8    4    5 ar
   9    4    7 1
  10    5    6 ar
  11    5   27 1
  12    6   28 1
  13    7    8 1
  14    7   29 1
  15    8    9 1
  16    8   30 1
  17    8   31 1
  18    9   10 am
  19    9   20 2
  20   10   11 1
  21   10   32 1
  22   11   12 ar
  23   11   16 ar
  24   12   13 ar
  25   12   33 1
  26   13   14 ar
  27   13   34 1
  28   14   15 ar
  29   14   35 1
  30   15   16 ar
  31   15   36 1
  32   16   17 1
  33   17   18 1
  34   17   19 2
  35   18   37 1
  36   21   23 1
  37   21   24 2
  38   23   25 1
  39   23   38 1
  40   23   39 1
  41   25   40 1
  42   25   41 1
  43   25   42 1

#	End of record

