#	Name: ASD05730059
#	Creating user name:	WinNT
#	Creation time:	15. 06. 2019 21:02

#	Modifying user name:	WinNT
#	Modification time:	15. 06. 2019 21:02

#	Program:	/corina/corina34_cracker 3.40 0067  02.08.2006

@<TRIPOS>MOLECULE
ASD05730059
  77   82    0    0    0
SMALL
NO_CHARGES


@<TRIPOS>ATOM
   1 N1            -0.0104     1.3971     0.0343 N.pl3   
   2 C2             0.0073    -0.0020     0.0190 C.ar    
   3 C3             1.0646    -0.6895     0.6006 C.ar    
   4 C4             1.0818    -2.0700     0.5859 C.ar    
   5 C5             0.0422    -2.7711    -0.0108 C.ar    
   6 C6            -1.0149    -2.0837    -0.5928 C.ar    
   7 C7            -1.0352    -0.7033    -0.5727 C.ar    
   8 N8             0.0599    -4.1716    -0.0261 N.pl3   
   9 C9             1.2592    -4.8457    -0.1458 C.ar    
  10 N10            1.2615    -6.1661    -0.0436 N.ar    
  11 C11            2.3951    -6.8499    -0.1532 C.ar    
  12 C12            3.5948    -6.1404    -0.3804 C.ar    
  13 C13            3.5392    -4.7415    -0.4809 C.ar    
  14 N14            2.3674    -4.1460    -0.3645 N.ar    
  15 N15            2.4041    -8.2177    -0.0479 N.am    
  16 C16            3.5530    -8.9113    -0.1584 C.2     
  17 C17            4.8196    -8.2118    -0.3939 C.2     
  18 C18            4.8193    -6.8339    -0.5027 C.2     
  19 C19            1.1476    -8.9329     0.1884 C.3     
  20 O20            3.5399   -10.1253    -0.0619 O.2     
  21 C21            6.0799    -8.9699    -0.5145 C.2     
  22 C22            0.8895    -9.9050    -0.9645 C.3     
  23 N23            6.8584    -9.0545    -1.6328 N.pl3   
  24 C24           -1.1257     2.1223    -0.5793 C.3     
  25 N25            6.6490    -9.6757     0.4392 N.2     
  26 C26            7.7769   -10.2230    -0.0297 C.2     
  27 C27            7.9281    -9.8508    -1.3165 C.2     
  28 S28            8.8791   -11.2522     0.8816 S.o2    
  29 C29            8.3425   -12.9158     0.6603 C.ar    
  30 O30           10.1442   -11.1502     0.2425 O.2     
  31 C31            8.8360   -13.6673    -0.3897 C.ar    
  32 C32           -2.2765     2.2866     0.4307 C.3     
  33 C33            7.4323   -13.4713     1.5400 C.ar    
  34 C34            7.0113   -14.7765     1.3663 C.ar    
  35 C35            7.5001   -15.5260     0.3127 C.ar    
  36 C36            8.4149   -14.9725    -0.5634 C.ar    
  37 O37            8.6744   -10.9437     2.2536 O.2     
  38 C38            1.2438    -9.7128     1.5012 C.3     
  39 C39            6.5994    -8.4154    -2.9254 C.3     
  40 N40           -2.4594     3.7381     0.6478 N.3     
  41 C41           -1.9504     4.3986    -0.5814 C.3     
  42 C42           -0.6958     3.5629    -0.9393 C.3     
  43 C43           -3.8744     4.0627     0.8724 C.3     
  44 H44            0.7138     1.8868     0.4546 H       
  45 H45            1.8735    -0.1443     1.0640 H       
  46 H46            1.9040    -2.6046     1.0382 H       
  47 H47           -1.8231    -2.6290    -1.0574 H       
  48 H48           -1.8575    -0.1687    -1.0250 H       
  49 H49           -0.7702    -4.6680     0.0475 H       
  50 H50            4.4359    -4.1651    -0.6542 H       
  51 H51            5.7398    -6.2965    -0.6765 H       
  52 H52            0.3281    -8.2170     0.2504 H       
  53 H53            1.7091   -10.6210    -1.0265 H       
  54 H54           -0.0453   -10.4372    -0.7887 H       
  55 H55            0.8210    -9.3494    -1.8998 H       
  56 H56           -1.4747     1.5967    -1.4681 H       
  57 H57            8.7388   -10.1280    -1.9740 H       
  58 H58            9.5502   -13.2347    -1.0746 H       
  59 H59           -3.1910     1.8537     0.0253 H       
  60 H60           -2.0175     1.8002     1.3712 H       
  61 H61            7.0504   -12.8857     2.3631 H       
  62 H62            6.3007   -15.2107     2.0540 H       
  63 H63            7.1715   -16.5459     0.1773 H       
  64 H64            8.7969   -15.5581    -1.3866 H       
  65 H65            1.4277    -9.0203     2.3226 H       
  66 H66            0.3089   -10.2450     1.6770 H       
  67 H67            2.0633   -10.4288     1.4393 H       
  68 H68            7.1349    -7.4673    -2.9757 H       
  69 H69            6.9408    -9.0686    -3.7284 H       
  70 H70            5.5300    -8.2349    -3.0337 H       
  71 H71           -2.6893     4.3451    -1.3810 H       
  72 H72           -1.6775     5.4339    -0.3770 H       
  73 H73            0.1585     3.8724    -0.3372 H       
  74 H74           -0.4691     3.6435    -2.0025 H       
  75 H75           -4.2341     3.5297     1.7525 H       
  76 H76           -3.9804     5.1361     1.0292 H       
  77 H77           -4.4584     3.7631     0.0023 H       
@<TRIPOS>BOND
   1    1    2 1
   2    1   24 1
   3    1   44 1
   4    2    3 ar
   5    2    7 ar
   6    3    4 ar
   7    3   45 1
   8    4    5 ar
   9    4   46 1
  10    5    6 ar
  11    5    8 1
  12    6    7 ar
  13    6   47 1
  14    7   48 1
  15    8    9 1
  16    8   49 1
  17    9   10 ar
  18    9   14 ar
  19   10   11 ar
  20   11   12 ar
  21   11   15 1
  22   12   13 ar
  23   12   18 1
  24   13   14 ar
  25   13   50 1
  26   15   16 am
  27   15   19 1
  28   16   17 1
  29   16   20 2
  30   17   18 2
  31   17   21 1
  32   18   51 1
  33   19   22 1
  34   19   38 1
  35   19   52 1
  36   21   23 1
  37   21   25 2
  38   22   53 1
  39   22   54 1
  40   22   55 1
  41   23   39 1
  42   23   27 1
  43   24   32 1
  44   24   42 1
  45   24   56 1
  46   25   26 1
  47   26   27 2
  48   26   28 1
  49   27   57 1
  50   28   29 1
  51   28   30 2
  52   28   37 2
  53   29   31 ar
  54   29   33 ar
  55   31   36 ar
  56   31   58 1
  57   32   40 1
  58   32   59 1
  59   32   60 1
  60   33   34 ar
  61   33   61 1
  62   34   35 ar
  63   34   62 1
  64   35   36 ar
  65   35   63 1
  66   36   64 1
  67   38   65 1
  68   38   66 1
  69   38   67 1
  70   39   68 1
  71   39   69 1
  72   39   70 1
  73   40   41 1
  74   40   43 1
  75   41   42 1
  76   41   71 1
  77   41   72 1
  78   42   73 1
  79   42   74 1
  80   43   75 1
  81   43   76 1
  82   43   77 1

#	End of record

