#	Name: ASD04910520
#	Creating user name:	WinNT
#	Creation time:	15. 06. 2019 20:56

#	Modifying user name:	WinNT
#	Modification time:	15. 06. 2019 20:56

#	Program:	/corina/corina34_cracker 3.40 0067  02.08.2006

@<TRIPOS>MOLECULE
ASD04910520
  69   73    0    0    0
SMALL
NO_CHARGES


@<TRIPOS>ATOM
   1 C1             1.0111     1.5000     0.1906 C.2     
   2 N2             2.1622    -2.0837    -0.0027 N.am    
   3 C3             2.2756    -0.6231    -0.0156 C.3     
   4 C4             0.8945    -0.0025     0.2038 C.3     
   5 O5             2.0883     2.0208     0.0229 O.2     
   6 O6            -0.0826     2.2595     0.3595 O.3     
   7 C7             3.2595    -2.8464    -0.1779 C.2     
   8 C8             3.1451    -4.3203    -0.1650 C.ar    
   9 C9             4.2795    -5.1130    -0.3461 C.ar    
  10 C10            4.1659    -6.4879    -0.3325 C.ar    
  11 C11            2.9309    -7.0811    -0.1402 C.ar    
  12 C12            1.8024    -6.3011     0.0400 C.ar    
  13 C13            1.9031    -4.9252     0.0342 C.ar    
  14 O14            4.3433    -2.3224    -0.3466 O.2     
  15 C15            2.8142    -8.5835    -0.1274 C.3     
  16 C16            2.3070    -9.0672    -1.4875 C.3     
  17 C17            2.0506   -10.5824    -1.5460 C.3     
  18 C18            0.7929   -10.2583    -2.3693 C.3     
  19 C19            0.7927    -8.8830    -1.6813 C.3     
  20 C20            1.0477   -10.1896    -3.8764 C.3     
  21 C21           -0.4158   -11.1242    -2.0086 C.3     
  22 N22            1.8725    -8.9913     0.9181 N.pl3   
  23 C23            3.6171    -8.8179     2.5842 C.ar    
  24 C24            2.3166    -9.1550     2.2340 C.ar    
  25 C25            1.4595    -9.6581     3.2107 C.ar    
  26 C26            1.9421    -9.8025     4.4994 C.ar    
  27 C27            3.2554    -9.4439     4.7751 C.ar    
  28 N28            4.0419    -8.9693     3.8230 N.ar    
  29 N29            3.7527    -9.5864     6.0756 N.pl3   
  30 N30            3.0436   -10.0725     7.1818 N.2     
  31 C31            3.8413   -10.0573     8.2188 C.2     
  32 C32            5.0848    -9.5619     7.8112 C.2     
  33 C33            5.0103    -9.2837     6.4891 C.2     
  34 C34            6.2956    -9.3761     8.6890 C.3     
  35 C35            6.1620    -8.4334     9.8866 C.3     
  36 C36            6.2338    -9.9456    10.1077 C.3     
  37 H37            1.2974    -2.5019     0.1319 H       
  38 H38            2.9480    -0.3039     0.7807 H       
  39 H39            2.6714    -0.2979    -0.9777 H       
  40 H40            0.4986    -0.3277     1.1659 H       
  41 H41            0.2220    -0.3217    -0.5925 H       
  42 H42            0.0420     3.2183     0.3434 H       
  43 H43            5.2441    -4.6512    -0.4970 H       
  44 H44            5.0429    -7.1024    -0.4725 H       
  45 H45            0.8413    -6.7704     0.1896 H       
  46 H46            1.0222    -4.3175     0.1794 H       
  47 H47            3.7917    -9.0222     0.0728 H       
  48 H48            2.9038    -8.6929    -2.3193 H       
  49 H49            2.8083   -11.1322    -2.1043 H       
  50 H50            1.8340   -11.0264    -0.5744 H       
  51 H51            0.2321    -8.8624    -0.7467 H       
  52 H52            0.5348    -8.0608    -2.3489 H       
  53 H53            1.4260   -11.1506    -4.2251 H       
  54 H54            0.1161    -9.9571    -4.3922 H       
  55 H55            1.7827    -9.4123    -4.0856 H       
  56 H56           -0.6677   -10.9771    -0.9584 H       
  57 H57           -1.2652   -10.8392    -2.6294 H       
  58 H58           -0.1756   -12.1733    -2.1811 H       
  59 H59            0.9409    -9.1478     0.6976 H       
  60 H60            4.2895    -8.4315     1.8326 H       
  61 H61            0.4425    -9.9285     2.9676 H       
  62 H62            1.3054   -10.1890     5.2815 H       
  63 H63            3.5839   -10.3733     9.2190 H       
  64 H64            5.8062    -8.8897     5.8745 H       
  65 H65            7.2570    -9.4051     8.1761 H       
  66 H66            7.0355    -7.8424    10.1619 H       
  67 H67            5.1983    -7.9476    10.0397 H       
  68 H68            5.3174   -10.4547    10.4062 H       
  69 H69            7.1546   -10.3496    10.5284 H       
@<TRIPOS>BOND
   1    1    4 1
   2    1    5 2
   3    1    6 1
   4    2    3 1
   5    2    7 am
   6    2   37 1
   7    3    4 1
   8    3   38 1
   9    3   39 1
  10    4   40 1
  11    4   41 1
  12    6   42 1
  13    7    8 1
  14    7   14 2
  15    8    9 ar
  16    8   13 ar
  17    9   10 ar
  18    9   43 1
  19   10   11 ar
  20   10   44 1
  21   11   12 ar
  22   11   15 1
  23   12   13 ar
  24   12   45 1
  25   13   46 1
  26   15   16 1
  27   15   22 1
  28   15   47 1
  29   16   17 1
  30   16   19 1
  31   16   48 1
  32   17   18 1
  33   17   49 1
  34   17   50 1
  35   18   19 1
  36   18   20 1
  37   18   21 1
  38   19   51 1
  39   19   52 1
  40   20   53 1
  41   20   54 1
  42   20   55 1
  43   21   56 1
  44   21   57 1
  45   21   58 1
  46   22   24 1
  47   22   59 1
  48   23   24 ar
  49   23   28 ar
  50   23   60 1
  51   24   25 ar
  52   25   26 ar
  53   25   61 1
  54   26   27 ar
  55   26   62 1
  56   27   28 ar
  57   27   29 1
  58   29   30 1
  59   29   33 1
  60   30   31 2
  61   31   32 1
  62   31   63 1
  63   32   33 2
  64   32   34 1
  65   33   64 1
  66   34   35 1
  67   34   36 1
  68   34   65 1
  69   35   36 1
  70   35   66 1
  71   35   67 1
  72   36   68 1
  73   36   69 1

#	End of record

