#	Name: ASD01914780
#	Creating user name:	WinNT
#	Creation time:	15. 06. 2019 20:04

#	Modifying user name:	WinNT
#	Modification time:	15. 06. 2019 20:04

#	Program:	/corina/corina34_cracker 3.40 0067  02.08.2006

@<TRIPOS>MOLECULE
ASD01914780
  40   42    0    0    0
SMALL
NO_CHARGES


@<TRIPOS>ATOM
   1 C1            -0.0173     1.4248     0.0099 C.3     
   2 O2             0.0021    -0.0041     0.0020 O.3     
   3 C3            -1.0422    -0.6310    -0.5959 C.ar    
   4 C4            -1.0767    -2.0226    -0.6337 C.ar    
   5 N5            -2.0156     0.0886    -1.1298 N.ar    
   6 C6            -3.0507    -0.4724    -1.7209 C.ar    
   7 C7            -3.1560    -1.8620    -1.8040 C.ar    
   8 C8            -2.1436    -2.6553    -1.2439 C.ar    
   9 C9            -4.2828    -2.4684    -2.4468 C.1     
  10 C10           -5.2065    -2.9656    -2.9739 C.1     
  11 C11           -6.3333    -3.5721    -3.6167 C.ar    
  12 C12           -6.4314    -4.9638    -3.6958 C.ar    
  13 C13           -7.5195    -5.5408    -4.3165 C.ar    
  14 C14           -8.5124    -4.7450    -4.8606 C.ar    
  15 C15           -8.4218    -3.3662    -4.7865 C.ar    
  16 C16           -7.3429    -2.7751    -4.1630 C.ar    
  17 C17           -0.7334     1.9182     1.2687 C.3     
  18 F18           -0.0787    -2.7461    -0.0807 F       
  19 C19            1.4181     1.9544    -0.0010 C.3     
  20 C20            1.3973     3.4842     0.0074 C.3     
  21 C21            0.6812     3.9776     1.2662 C.3     
  22 C22           -0.7542     3.4480     1.2771 C.3     
  23 F23            1.3578     3.5142     2.3996 F       
  24 H24           -0.5445     1.7859    -0.8732 H       
  25 H25           -3.8256     0.1489    -2.1450 H       
  26 H26           -2.1946    -3.7330    -1.2915 H       
  27 H27           -5.6569    -5.5860    -3.2723 H       
  28 H28           -7.5967    -6.6162    -4.3784 H       
  29 H29           -9.3620    -5.2024    -5.3458 H       
  30 H30           -9.2001    -2.7515    -5.2140 H       
  31 H31           -7.2737    -1.6989    -4.1055 H       
  32 H32           -1.7560     1.5409     1.2764 H       
  33 H33           -0.2063     1.5571     2.1517 H       
  34 H34            1.9453     1.5933     0.8821 H       
  35 H35            1.9283     1.6028    -0.8978 H       
  36 H36            2.4199     3.8615    -0.0003 H       
  37 H37            0.8701     3.8453    -0.8756 H       
  38 H38            0.6664     5.0675     1.2722 H       
  39 H39           -1.2814     3.8091     0.3940 H       
  40 H40           -1.2644     3.7996     2.1739 H       
@<TRIPOS>BOND
   1    1    2 1
   2    1   19 1
   3    1   17 1
   4    1   24 1
   5    2    3 1
   6    3    4 ar
   7    3    5 ar
   8    4   18 1
   9    4    8 ar
  10    5    6 ar
  11    6    7 ar
  12    6   25 1
  13    7    8 ar
  14    7    9 1
  15    8   26 1
  16    9   10 3
  17   10   11 1
  18   11   12 ar
  19   11   16 ar
  20   12   13 ar
  21   12   27 1
  22   13   14 ar
  23   13   28 1
  24   14   15 ar
  25   14   29 1
  26   15   16 ar
  27   15   30 1
  28   16   31 1
  29   17   22 1
  30   17   32 1
  31   17   33 1
  32   19   20 1
  33   19   34 1
  34   19   35 1
  35   20   21 1
  36   20   36 1
  37   20   37 1
  38   21   22 1
  39   21   23 1
  40   21   38 1
  41   22   39 1
  42   22   40 1

#	End of record

