#	Name: ASD01202005
#	Creating user name:	WinNT
#	Creation time:	15. 06. 2019 19:09

#	Modifying user name:	WinNT
#	Modification time:	15. 06. 2019 19:09

#	Program:	/corina/corina34_cracker 3.40 0067  02.08.2006

@<TRIPOS>MOLECULE
ASD01202005
  37   38    0    0    0
SMALL
NO_CHARGES


@<TRIPOS>ATOM
   1 C1            -0.0179     1.4692     0.0101 C.2     
   2 C2             0.0021    -0.0041     0.0020 C.2     
   3 O3             1.0634    -0.5978    -0.0113 O.2     
   4 N4            -1.1558    -0.6938     0.0094 N.am    
   5 H5            -2.0023    -0.2203     0.0200 H       
   6 C6             1.0576     2.3087     0.0044 C.2     
   7 O7             0.6097     3.5679     0.0154 O.3     
   8 C8            -0.7320     3.5990     0.0284 C.2     
   9 C9            -1.2011     2.3420     0.0197 C.2     
  10 C10            2.5046     1.8877    -0.0110 C.3     
  11 C11           -1.5769     4.8468     0.0440 C.3     
  12 C12           -1.1370    -2.0827     0.0017 C.2     
  13 S13           -2.5249    -3.0810     0.0096 S.3     
  14 N14           -0.0645    -2.8107    -0.0180 N.2     
  15 C15           -1.5051    -4.5173    -0.0159 C.2     
  16 C16           -0.2313    -4.1201    -0.0279 C.2     
  17 C17           -1.9871    -5.9451    -0.0235 C.3     
  18 C18            0.9235    -5.0881    -0.0509 C.3     
  19 C19           -2.1336    -6.4415     1.4163 C.3     
  20 C20            1.2966    -5.4026    -1.5010 C.3     
  21 H21           -2.2362     2.0341     0.0257 H       
  22 H22            2.8440     1.7912    -1.0423 H       
  23 H23            3.1068     2.6382     0.5010 H       
  24 H24            2.6095     0.9292     0.4972 H       
  25 H25           -0.9297     5.7239     0.0426 H       
  26 H26           -2.2149     4.8646    -0.8397 H       
  27 H27           -2.1973     4.8544     0.9402 H       
  28 H28           -2.9524    -6.0000    -0.5268 H       
  29 H29           -1.2661    -6.5692    -0.5514 H       
  30 H30            1.7799    -4.6442     0.4566 H       
  31 H31            0.6364    -6.0083     0.4582 H       
  32 H32           -2.4823    -7.4742     1.4108 H       
  33 H33           -1.1683    -6.3866     1.9195 H       
  34 H34           -2.8546    -5.8174     1.9442 H       
  35 H35            1.5837    -4.4825    -2.0100 H       
  36 H36            2.1318    -6.1028    -1.5176 H       
  37 H37            0.4402    -5.8466    -2.0084 H       
@<TRIPOS>BOND
   1    1    2 1
   2    1    6 2
   3    1    9 1
   4    2    3 2
   5    2    4 am
   6    4    5 1
   7    4   12 1
   8    6    7 1
   9    6   10 1
  10    7    8 1
  11    8    9 2
  12    8   11 1
  13    9   21 1
  14   10   22 1
  15   10   23 1
  16   10   24 1
  17   11   25 1
  18   11   26 1
  19   11   27 1
  20   12   13 1
  21   12   14 2
  22   13   15 1
  23   14   16 1
  24   15   17 1
  25   15   16 2
  26   16   18 1
  27   17   19 1
  28   17   28 1
  29   17   29 1
  30   18   20 1
  31   18   30 1
  32   18   31 1
  33   19   32 1
  34   19   33 1
  35   19   34 1
  36   20   35 1
  37   20   36 1
  38   20   37 1

#	End of record

