#	Name: ASD01913179
#	Creating user name:	WinNT
#	Creation time:	15. 06. 2019 20:01

#	Modifying user name:	WinNT
#	Modification time:	15. 06. 2019 20:01

#	Program:	/corina/corina34_cracker 3.40 0067  02.08.2006

@<TRIPOS>MOLECULE
ASD01913179
  47   50    0    0    0
SMALL
NO_CHARGES


@<TRIPOS>ATOM
   1 C1            -0.7792     0.0109     2.6445 C.2     
   2 N2            -0.5331    -1.1415     2.0878 N.2     
   3 C3             0.6708    -1.4414     1.5731 C.2     
   4 C4             1.6576    -0.5145     1.6138 C.2     
   5 C5             1.3957     0.7337     2.2248 C.2     
   6 N6             0.1677     0.9657     2.7316 N.am    
   7 C7             3.0227    -0.7479     1.0229 C.3     
   8 C8             0.8610    -2.8152     0.9874 C.3     
   9 C9             2.0503    -2.8374     0.0281 C.3     
  10 N10            3.1814    -2.1690     0.6929 N.am    
  11 O11            2.2658     1.5859     2.2926 O.2     
  12 C12            4.3157    -2.8350     0.9867 C.2     
  13 C13            5.4784    -2.1076     1.5332 C.ar    
  14 C14            6.3065    -2.7215     2.4720 C.ar    
  15 C15            7.4024    -2.0303     2.9838 C.ar    
  16 C16            7.6646    -0.7202     2.5501 C.ar    
  17 C17            6.8335    -0.1193     1.6158 C.ar    
  18 C18            5.7526    -0.8049     1.1051 C.ar    
  19 O19            4.3814    -4.0348     0.8016 O.2     
  20 C20            8.2580    -2.6528     3.9487 C.1     
  21 C21            8.9595    -3.1631     4.7397 C.1     
  22 C22            9.8151    -3.7856     5.7046 C.ar    
  23 C23           10.9126    -3.0852     6.2131 C.ar    
  24 C24           11.7288    -3.7008     7.1441 C.ar    
  25 C25           11.4247    -4.9970     7.5394 C.ar    
  26 C26           10.3234    -5.6325     6.9963 C.ar    
  27 N27            9.5569    -5.0239     6.1145 N.ar    
  28 O28            8.7301    -0.0427     3.0449 O.3     
  29 C29            8.9367     1.2853     2.5595 C.3     
  30 H30           -1.7647     0.2064     3.0408 H       
  31 H31           -0.0328     1.8147     3.1559 H       
  32 H32            3.1332    -0.1507     0.1178 H       
  33 H33            3.7853    -0.4558     1.7449 H       
  34 H34            1.0373    -3.5274     1.7935 H       
  35 H35           -0.0409    -3.1026     0.4470 H       
  36 H36            2.3167    -3.8683    -0.2052 H       
  37 H37            1.7948    -2.3055    -0.8884 H       
  38 H38            6.0989    -3.7289     2.8014 H       
  39 H39            7.0369     0.8882     1.2841 H       
  40 H40            5.1125    -0.3328     0.3745 H       
  41 H41           11.1203    -2.0780     5.8834 H       
  42 H42           12.5842    -3.1850     7.5547 H       
  43 H43           12.0436    -5.5044     8.2646 H       
  44 H44           10.0856    -6.6404     7.3026 H       
  45 H45            9.0823     1.2589     1.4796 H       
  46 H46            8.0658     1.8975     2.7938 H       
  47 H47            9.8197     1.7126     3.0348 H       
@<TRIPOS>BOND
   1    1    2 2
   2    1    6 1
   3    1   30 1
   4    2    3 1
   5    3    4 2
   6    3    8 1
   7    4    5 1
   8    4    7 1
   9    5    6 am
  10    5   11 2
  11    6   31 1
  12    7   10 1
  13    7   32 1
  14    7   33 1
  15    8    9 1
  16    8   34 1
  17    8   35 1
  18    9   10 1
  19    9   36 1
  20    9   37 1
  21   10   12 am
  22   12   13 1
  23   12   19 2
  24   13   14 ar
  25   13   18 ar
  26   14   15 ar
  27   14   38 1
  28   15   16 ar
  29   15   20 1
  30   16   17 ar
  31   16   28 1
  32   17   18 ar
  33   17   39 1
  34   18   40 1
  35   20   21 3
  36   21   22 1
  37   22   23 ar
  38   22   27 ar
  39   23   24 ar
  40   23   41 1
  41   24   25 ar
  42   24   42 1
  43   25   26 ar
  44   25   43 1
  45   26   27 ar
  46   26   44 1
  47   28   29 1
  48   29   45 1
  49   29   46 1
  50   29   47 1

#	End of record

