#	Name: ASD01910768
#	Creating user name:	WinNT
#	Creation time:	15. 06. 2019 19:56

#	Modifying user name:	WinNT
#	Modification time:	15. 06. 2019 19:56

#	Program:	/corina/corina34_cracker 3.40 0067  02.08.2006

@<TRIPOS>MOLECULE
ASD01910768
  49   52    0    0    0
SMALL
NO_CHARGES


@<TRIPOS>ATOM
   1 N1            -0.0177     1.4736    -0.0759 N.am    
   2 C2             0.0115     0.0031    -0.0715 C.3     
   3 C3             0.8277    -0.4712    -1.2787 C.3     
   4 N4             2.1461     0.1764    -1.2593 N.3     
   5 C5             2.0259     1.6341    -1.3955 C.3     
   6 C6             1.2589     2.1946    -0.1931 C.3     
   7 C7             2.9739    -0.3494    -2.2444 C.ar    
   8 C8             4.2700     0.1359    -2.3872 C.ar    
   9 C9             5.0828    -0.3963    -3.3715 C.ar    
  10 C10            4.5703    -1.3999    -4.1833 C.ar    
  11 C11            3.2750    -1.8337    -3.9860 C.ar    
  12 N12            2.5237    -1.3113    -3.0350 N.ar    
  13 C13           -1.1838     2.1425     0.0194 C.2     
  14 C14           -1.1831     3.6152     0.1389 C.ar    
  15 C15           -2.1434     4.3702    -0.5323 C.ar    
  16 C16           -2.1363     5.7590    -0.4148 C.ar    
  17 C17           -1.1645     6.3857     0.3767 C.ar    
  18 C18           -0.2155     5.6278     1.0390 C.ar    
  19 C19           -0.2231     4.2524     0.9295 C.ar    
  20 O20           -2.2363     1.5343     0.0069 O.2     
  21 C21           -3.1187     6.5430    -1.1010 C.1     
  22 C22           -3.9241     7.1857    -1.6637 C.1     
  23 C23           -4.9065     7.9696    -2.3499 C.ar    
  24 C24           -4.9004     9.3620    -2.2329 C.ar    
  25 C25           -5.8498    10.1105    -2.8968 C.ar    
  26 C26           -6.8066     9.4858    -3.6772 C.ar    
  27 C27           -6.8191     8.1073    -3.7974 C.ar    
  28 C28           -5.8723     7.3462    -3.1444 C.ar    
  29 F29           -1.1541     7.7317     0.4927 F       
  30 H30            0.4780    -0.3512     0.8478 H       
  31 H31           -1.0051    -0.3836    -0.1422 H       
  32 H32            0.9530    -1.5529    -1.2307 H       
  33 H33            0.3055    -0.2055    -2.1978 H       
  34 H34            3.0202     2.0792    -1.4323 H       
  35 H35            1.4870     1.8704    -2.3130 H       
  36 H36            1.0668     3.2569    -0.3442 H       
  37 H37            1.8452     2.0510     0.7145 H       
  38 H38            4.6363     0.9178    -1.7384 H       
  39 H39            6.0931    -0.0392    -3.5061 H       
  40 H40            5.1791    -1.8361    -4.9614 H       
  41 H41            2.8726    -2.6139    -4.6150 H       
  42 H42           -2.8895     3.8812    -1.1410 H       
  43 H43            0.5318     6.1146     1.6480 H       
  44 H44            0.5181     3.6666     1.4530 H       
  45 H45           -4.1544     9.8509    -1.6239 H       
  46 H46           -5.8466    11.1868    -2.8070 H       
  47 H47           -7.5476    10.0771    -4.1947 H       
  48 H48           -7.5691     7.6266    -4.4080 H       
  49 H49           -5.8802     6.2707    -3.2430 H       
@<TRIPOS>BOND
   1    1    2 1
   2    1    6 1
   3    1   13 am
   4    2    3 1
   5    2   30 1
   6    2   31 1
   7    3    4 1
   8    3   32 1
   9    3   33 1
  10    4    5 1
  11    4    7 1
  12    5    6 1
  13    5   34 1
  14    5   35 1
  15    6   36 1
  16    6   37 1
  17    7    8 ar
  18    7   12 ar
  19    8    9 ar
  20    8   38 1
  21    9   10 ar
  22    9   39 1
  23   10   11 ar
  24   10   40 1
  25   11   12 ar
  26   11   41 1
  27   13   14 1
  28   13   20 2
  29   14   15 ar
  30   14   19 ar
  31   15   16 ar
  32   15   42 1
  33   16   17 ar
  34   16   21 1
  35   17   18 ar
  36   17   29 1
  37   18   19 ar
  38   18   43 1
  39   19   44 1
  40   21   22 3
  41   22   23 1
  42   23   24 ar
  43   23   28 ar
  44   24   25 ar
  45   24   45 1
  46   25   26 ar
  47   25   46 1
  48   26   27 ar
  49   26   47 1
  50   27   28 ar
  51   27   48 1
  52   28   49 1

#	End of record

