#	Name: ASD02560423
#	Creating user name:	WinNT
#	Creation time:	15. 06. 2019 20:25

#	Modifying user name:	WinNT
#	Modification time:	15. 06. 2019 20:25

#	Program:	/corina/corina34_cracker 3.40 0067  02.08.2006

@<TRIPOS>MOLECULE
ASD02560423
  50   55    0    0    0
SMALL
NO_CHARGES


@<TRIPOS>ATOM
   1 C1             0.0487     1.3997     0.7021 C.2     
   2 C2             0.0581    -0.0054     0.6357 C.2     
   3 C3             1.2129    -0.6701     0.4333 C.2     
   4 N4             2.3927     0.0099     0.2897 N.pl3   
   5 C5             2.4148     1.3848     0.3500 C.2     
   6 C6             1.2105     2.0905     0.5612 C.2     
   7 C7             3.6768    -0.4092     0.0799 C.2     
   8 C8             4.4612     0.7243     0.0159 C.2     
   9 N9             3.6611     1.7941     0.1841 N.2     
  10 C10            5.9255     0.7582    -0.1993 C.2     
  11 N11            4.1101    -1.7271    -0.0453 N.3     
  12 C12            2.9864    -2.6649     0.0795 C.3     
  13 C13            3.5007    -4.0990    -0.0615 C.3     
  14 N14            6.7850    -0.1950     0.0727 N.2     
  15 C15            2.3274    -2.4919     1.4494 C.3     
  16 C16            1.1570    -3.4687     1.5794 C.3     
  17 C17            1.6714    -4.9027     1.4384 C.3     
  18 C18            2.3303    -5.0757     0.0684 C.3     
  19 C19            0.1311    -3.1844     0.4805 C.3     
  20 C20            1.3044    -4.7915    -1.0305 C.3     
  21 C21            0.7900    -3.3575    -0.8894 C.3     
  22 C22            1.9604    -2.3807    -1.0194 C.3     
  23 C23            6.6857     1.8298    -0.7492 C.2     
  24 C24            7.9562     1.3696    -0.7329 C.2     
  25 O25            7.9123     0.1325    -0.2168 O.3     
  26 C26            9.1843     2.1028    -1.2075 C.3     
  27 H27           -0.8798     1.9282     0.8601 H       
  28 H28           -0.8651    -0.5545     0.7480 H       
  29 H29            1.2077    -1.7490     0.3842 H       
  30 H30            1.2124     3.1693     0.6105 H       
  31 H31            4.6013    -1.8651    -0.9158 H       
  32 H32            3.9702    -4.2222    -1.0375 H       
  33 H33            4.2316    -4.3015     0.7213 H       
  34 H34            3.0583    -2.6944     2.2323 H       
  35 H35            1.9610    -1.4703     1.5499 H       
  36 H36            0.6875    -3.3454     2.5554 H       
  37 H37            2.4022    -5.1052     2.2213 H       
  38 H38            0.8375    -5.5985     1.5310 H       
  39 H39            2.6967    -6.0973    -0.0320 H       
  40 H40           -0.7028    -3.8803     0.5731 H       
  41 H41           -0.2354    -2.1628     0.5810 H       
  42 H42            1.7738    -4.9148    -2.0065 H       
  43 H43            0.4705    -5.4874    -0.9379 H       
  44 H44            0.0591    -3.1550    -1.6723 H       
  45 H45            1.5940    -1.3591    -0.9190 H       
  46 H46            2.4299    -2.5040    -1.9954 H       
  47 H47            6.3295     2.7877    -1.0982 H       
  48 H48            9.6102     2.6713    -0.3807 H       
  49 H49            9.9189     1.3841    -1.5707 H       
  50 H50            8.9121     2.7833    -2.0142 H       
@<TRIPOS>BOND
   1    1    2 1
   2    1    6 2
   3    1   27 1
   4    2    3 2
   5    2   28 1
   6    3    4 1
   7    3   29 1
   8    4    5 1
   9    4    7 1
  10    5    6 1
  11    5    9 2
  12    6   30 1
  13    7    8 2
  14    7   11 1
  15    8    9 1
  16    8   10 1
  17   10   23 1
  18   10   14 2
  19   11   12 1
  20   11   31 1
  21   12   13 1
  22   12   15 1
  23   12   22 1
  24   13   18 1
  25   13   32 1
  26   13   33 1
  27   14   25 1
  28   15   16 1
  29   15   34 1
  30   15   35 1
  31   16   17 1
  32   16   19 1
  33   16   36 1
  34   17   18 1
  35   17   37 1
  36   17   38 1
  37   18   20 1
  38   18   39 1
  39   19   21 1
  40   19   40 1
  41   19   41 1
  42   20   21 1
  43   20   42 1
  44   20   43 1
  45   21   22 1
  46   21   44 1
  47   22   45 1
  48   22   46 1
  49   23   24 2
  50   23   47 1
  51   24   25 1
  52   24   26 1
  53   26   48 1
  54   26   49 1
  55   26   50 1

#	End of record

