#	Name: ASD01810540
#	Creating user name:	WinNT
#	Creation time:	15. 06. 2019 19:24

#	Modifying user name:	WinNT
#	Modification time:	15. 06. 2019 19:24

#	Program:	/corina/corina34_cracker 3.40 0067  02.08.2006

@<TRIPOS>MOLECULE
ASD01810540
  51   55    0    0    0
SMALL
NO_CHARGES


@<TRIPOS>ATOM
   1 C1            -0.0366     1.4152    -0.0004 C.ar    
   2 C2            -0.0846     0.0857    -0.3855 C.ar    
   3 C3            -1.2912    -0.5912    -0.3873 C.ar    
   4 C4            -2.4532     0.0642    -0.0027 C.ar    
   5 C5            -2.4002     1.3980     0.3829 C.ar    
   6 C6            -1.1924     2.0674     0.3879 C.ar    
   7 C7             1.2788     2.1506     0.0014 C.3     
   8 N8             1.8685     2.0999    -1.3387 N.pl3   
   9 N9            -3.6753    -0.6171    -0.0038 N.pl3   
  10 C10            1.4550     3.0218    -2.2773 C.ar    
  11 C11            2.7900     1.1638    -1.5986 C.2     
  12 C12            3.3935     1.0494    -2.8347 C.2     
  13 C13            3.0111     1.9877    -3.9026 C.2     
  14 C14            1.9976     3.0056    -3.5735 C.ar    
  15 C15            1.5734     3.9372    -4.5245 C.ar    
  16 C16            0.6217     4.8764    -4.1813 C.ar    
  17 C17            0.0894     4.8968    -2.9013 C.ar    
  18 C18            0.4960     3.9799    -1.9535 C.ar    
  19 F19            2.0917     3.9191    -5.7720 F       
  20 O20            3.5149     1.9283    -5.0106 O.2     
  21 C21            4.4013     0.0084    -3.0804 C.2     
  22 O22            4.7098    -0.7609    -2.1912 O.2     
  23 O23            4.9837    -0.0933    -4.2919 O.3     
  24 F24           -0.0325     4.0135    -0.7106 F       
  25 C25           -4.6959    -0.4226     0.8940 C.ar    
  26 N26           -4.0546    -1.6005    -0.9231 N.2     
  27 C27           -5.2542    -2.0349    -0.6451 C.2     
  28 C28           -5.7301    -1.3065     0.5312 C.ar    
  29 F29            1.0470    -0.5503    -0.7598 F       
  30 O30           -5.9391    -2.9897    -1.3278 O.3     
  31 C31           -5.2859    -3.5748    -2.4561 C.3     
  32 C32           -6.9114    -1.3337     1.2787 C.ar    
  33 C33           -7.0499    -0.5030     2.3532 C.ar    
  34 C34           -6.0284     0.3687     2.7098 C.ar    
  35 C35           -4.8665     0.4157     1.9925 C.ar    
  36 H36           -1.3292    -1.6279    -0.6879 H       
  37 H37           -3.3028     1.9101     0.6821 H       
  38 H38           -1.1517     3.1041     0.6876 H       
  39 H39            1.1138     3.1896     0.2867 H       
  40 H40            1.9565     1.6812     0.7145 H       
  41 H41            3.0706     0.4758    -0.8149 H       
  42 H42            0.2906     5.5985    -4.9129 H       
  43 H43           -0.6541     5.6367    -2.6439 H       
  44 H44            5.6407    -0.7936    -4.4058 H       
  45 H45           -4.3608    -4.0524    -2.1331 H       
  46 H46           -5.9404    -4.3196    -2.9089 H       
  47 H47           -5.0582    -2.7988    -3.1869 H       
  48 H48           -7.7102    -2.0081     1.0074 H       
  49 H49           -7.9620    -0.5234     2.9312 H       
  50 H50           -6.1555     1.0190     3.5627 H       
  51 H51           -4.0800     1.0976     2.2803 H       
@<TRIPOS>BOND
   1    1    2 ar
   2    1    7 1
   3    1    6 ar
   4    2    3 ar
   5    2   29 1
   6    3    4 ar
   7    3   36 1
   8    4    5 ar
   9    4    9 1
  10    5    6 ar
  11    5   37 1
  12    6   38 1
  13    7    8 1
  14    7   39 1
  15    7   40 1
  16    8   10 1
  17    8   11 1
  18    9   26 1
  19    9   25 1
  20   10   14 ar
  21   10   18 ar
  22   11   12 2
  23   11   41 1
  24   12   13 1
  25   12   21 1
  26   13   14 1
  27   13   20 2
  28   14   15 ar
  29   15   16 ar
  30   15   19 1
  31   16   17 ar
  32   16   42 1
  33   17   18 ar
  34   17   43 1
  35   18   24 1
  36   21   22 2
  37   21   23 1
  38   23   44 1
  39   25   28 ar
  40   25   35 ar
  41   26   27 2
  42   27   28 1
  43   27   30 1
  44   28   32 ar
  45   30   31 1
  46   31   45 1
  47   31   46 1
  48   31   47 1
  49   32   33 ar
  50   32   48 1
  51   33   34 ar
  52   33   49 1
  53   34   35 ar
  54   34   50 1
  55   35   51 1

#	End of record

