#	Name: ASD02560484
#	Creating user name:	WinNT
#	Creation time:	15. 06. 2019 20:25

#	Modifying user name:	WinNT
#	Modification time:	15. 06. 2019 20:25

#	Program:	/corina/corina34_cracker 3.40 0067  02.08.2006

@<TRIPOS>MOLECULE
ASD02560484
  40   43    0    0    0
SMALL
NO_CHARGES


@<TRIPOS>ATOM
   1 C1            -0.0391     1.0317     0.1152 C.2     
   2 C2             0.0861    -0.3601    -0.0434 C.2     
   3 C3             1.3053    -0.9312    -0.1099 C.2     
   4 N4             2.4383    -0.1672    -0.0238 N.pl3   
   5 C5             2.3471     1.1972     0.1316 C.2     
   6 C6             1.0755     1.8049     0.2019 C.2     
   7 C7             3.7678    -0.4845    -0.0615 C.2     
   8 C8             4.4643     0.6982     0.0724 C.2     
   9 N9             3.5704     1.6975     0.1872 N.2     
  10 C10            5.9388     0.8432     0.0879 C.ar    
  11 N11            4.3148    -1.7601    -0.2066 N.3     
  12 C12            3.2708    -2.7913    -0.1394 C.3     
  13 C13            2.6546    -3.0310    -1.5401 C.3     
  14 C14            6.5651     1.7280    -0.7907 C.ar    
  15 C15            3.8826    -4.1548     0.2431 C.3     
  16 C16            3.1277    -5.2195    -0.5719 C.3     
  17 C17            2.0835    -4.4658    -1.4213 C.3     
  18 C18            6.7064     0.0996     0.9850 C.ar    
  19 C19            8.0806     0.2389     0.9949 C.ar    
  20 C20            8.6966     1.1131     0.1180 C.ar    
  21 C21            7.9408     1.8584    -0.7710 C.ar    
  22 Cl22           5.6184     2.6625    -1.9061 Cl      
  23 Cl23           8.7231     2.9528    -1.8682 Cl      
  24 Cl24           5.9356    -0.9981     2.0871 Cl      
  25 H25           -1.0181     1.4853     0.1635 H       
  26 H26           -0.7993    -0.9747    -0.1120 H       
  27 H27            1.3893    -2.0010    -0.2318 H       
  28 H28            0.9886     2.8745     0.3234 H       
  29 H29            4.8401    -1.8327    -1.0651 H       
  30 H30            2.4990    -2.5055     0.5752 H       
  31 H31            1.8586    -2.3137    -1.7399 H       
  32 H32            3.4218    -2.9834    -2.3129 H       
  33 H33            4.9425    -4.1728    -0.0103 H       
  34 H34            3.7500    -4.3376     1.3095 H       
  35 H35            3.8213    -5.7542    -1.2209 H       
  36 H36            2.6288    -5.9190     0.0989 H       
  37 H37            1.1183    -4.4516    -0.9150 H       
  38 H38            1.9917    -4.9227    -2.4067 H       
  39 H39            8.6753    -0.3361     1.6892 H       
  40 H40            9.7714     1.2185     0.1301 H       
@<TRIPOS>BOND
   1    1    2 1
   2    1    6 2
   3    1   25 1
   4    2    3 2
   5    2   26 1
   6    3    4 1
   7    3   27 1
   8    4    5 1
   9    4    7 1
  10    5    6 1
  11    5    9 2
  12    6   28 1
  13    7    8 2
  14    7   11 1
  15    8    9 1
  16    8   10 1
  17   10   14 ar
  18   10   18 ar
  19   11   12 1
  20   11   29 1
  21   12   15 1
  22   12   13 1
  23   12   30 1
  24   13   17 1
  25   13   31 1
  26   13   32 1
  27   14   22 1
  28   14   21 ar
  29   15   16 1
  30   15   33 1
  31   15   34 1
  32   16   17 1
  33   16   35 1
  34   16   36 1
  35   17   37 1
  36   17   38 1
  37   18   19 ar
  38   18   24 1
  39   19   20 ar
  40   19   39 1
  41   20   21 ar
  42   20   40 1
  43   21   23 1

#	End of record

