#	Name: ASD02350001
#	Creating user name:	WinNT
#	Creation time:	15. 06. 2019 20:20

#	Modifying user name:	WinNT
#	Modification time:	15. 06. 2019 20:20

#	Program:	/corina/corina34_cracker 3.40 0067  02.08.2006

@<TRIPOS>MOLECULE
ASD02350001
  30   30    0    0    0
SMALL
NO_CHARGES


@<TRIPOS>ATOM
   1 C1            -0.0184     1.5028     0.0103 C.2     
   2 C2             0.0021    -0.0041     0.0020 C.3     
   3 C3             1.4513    -0.4944    -0.0145 C.3     
   4 O4             1.0197     2.1211     0.0037 O.2     
   5 O5            -1.1898     2.1580     0.0194 O.3     
   6 N6             1.5640    -4.0981     0.6266 N.pl3   
   7 C7             1.5871    -2.8038     1.0547 C.2     
   8 C8             1.4717    -2.0012    -0.0227 C.2     
   9 C9             1.3738    -2.8303    -1.1577 C.2     
  10 C10            1.4330    -4.1080    -0.7305 C.2     
  11 C11            1.2293    -2.3733    -2.5864 C.3     
  12 C12            2.5952    -2.2010    -3.1993 C.2     
  13 O13            3.5845    -2.4262    -2.5432 O.2     
  14 O14            2.7128    -1.7973    -4.4740 O.3     
  15 C15            1.3656    -5.3351    -1.6026 C.3     
  16 N16            2.6806    -5.5760    -2.2114 N.3     
  17 H17           -0.4983    -0.3791     0.8948 H       
  18 H18           -0.5153    -0.3696    -0.8850 H       
  19 H19            1.9516    -0.1193    -0.9073 H       
  20 H20            1.9686    -0.1289     0.8726 H       
  21 H21           -1.1523     3.1243     0.0245 H       
  22 H22            1.6334    -4.8822     1.1934 H       
  23 H23            1.6813    -2.4777     2.0800 H       
  24 H24            0.6689    -3.1183    -3.1513 H       
  25 H25            0.6972    -1.4223    -2.6116 H       
  26 H26            3.6094    -1.7012    -4.8231 H       
  27 H27            1.0824    -6.1961    -0.9971 H       
  28 H28            0.6244    -5.1830    -2.3871 H       
  29 H29            3.3969    -5.6561    -1.5052 H       
  30 H30            2.6615    -6.3943    -2.8015 H       
@<TRIPOS>BOND
   1    1    2 1
   2    1    4 2
   3    1    5 1
   4    2    3 1
   5    2   17 1
   6    2   18 1
   7    3    8 1
   8    3   19 1
   9    3   20 1
  10    5   21 1
  11    6    7 1
  12    6   10 1
  13    6   22 1
  14    7    8 2
  15    7   23 1
  16    8    9 1
  17    9   10 2
  18    9   11 1
  19   10   15 1
  20   11   12 1
  21   11   24 1
  22   11   25 1
  23   12   13 2
  24   12   14 1
  25   14   26 1
  26   15   16 1
  27   15   27 1
  28   15   28 1
  29   16   29 1
  30   16   30 1

#	End of record

