#	Name: ASD01883799
#	Creating user name:	WinNT
#	Creation time:	15. 06. 2019 19:47

#	Modifying user name:	WinNT
#	Modification time:	15. 06. 2019 19:47

#	Program:	/corina/corina34_cracker 3.40 0067  02.08.2006

@<TRIPOS>MOLECULE
ASD01883799
  46   48    0    0    0
SMALL
NO_CHARGES


@<TRIPOS>ATOM
   1 N1            -0.0106     1.3261    -0.2316 N.ar    
   2 C2             0.0052     0.0068    -0.2448 C.ar    
   3 C3             1.1966    -0.6874    -0.2093 C.ar    
   4 C4             2.3968     0.0276    -0.1588 C.ar    
   5 C5             2.3337     1.4236    -0.1465 C.ar    
   6 C6             1.0989     2.0382    -0.1844 C.ar    
   7 C7             3.7022    -0.6766    -0.1189 C.2     
   8 C8             3.8940    -2.0669    -0.2255 C.2     
   9 C9             5.2293    -2.3093    -0.1437 C.2     
  10 N10            5.8576    -1.1138     0.0090 N.pl3   
  11 N11            4.8820    -0.1089     0.0166 N.2     
  12 C12            1.0166     3.5429    -0.1716 C.3     
  13 C13            7.3028    -0.9114     0.1388 C.3     
  14 C14            7.9171    -0.7163    -1.2488 C.3     
  15 O15            7.7703    -1.9180    -2.0079 O.3     
  16 N16            5.8428    -3.5580    -0.2050 N.pl3   
  17 C17            5.0652    -4.7185    -0.2183 C.ar    
  18 C18            5.4622    -5.8136    -0.9753 C.ar    
  19 C19            4.6921    -6.9603    -0.9868 C.ar    
  20 C20            3.5264    -7.0199    -0.2463 C.ar    
  21 C21            3.1265    -5.9303     0.5101 C.ar    
  22 C22            3.8965    -4.7816     0.5299 C.ar    
  23 C23            9.4032    -0.3814    -1.1061 C.3     
  24 C24            2.6886    -8.2725    -0.2623 C.3     
  25 F25            3.2906    -9.2257    -1.0906 F       
  26 F26            2.5861    -8.7816     1.0368 F       
  27 F27            1.4112    -7.9729    -0.7478 F       
  28 F28            1.9865    -5.9915     1.2324 F       
  29 H29           -0.9272    -0.5368    -0.2835 H       
  30 H30            1.2022    -1.7673    -0.2200 H       
  31 H31            3.2381     2.0127    -0.1076 H       
  32 H32            3.1189    -2.8087    -0.3494 H       
  33 H33            0.9600     3.8949     0.8584 H       
  34 H34            1.9033     3.9593    -0.6497 H       
  35 H35            0.1271     3.8628    -0.7144 H       
  36 H36            7.4926    -0.0275     0.7478 H       
  37 H37            7.7505    -1.7837     0.6150 H       
  38 H38            7.4079     0.1008    -1.7599 H       
  39 H39            8.1382    -1.8667    -2.9007 H       
  40 H40            6.8101    -3.6219    -0.2384 H       
  41 H41            6.3723    -5.7683    -1.5550 H       
  42 H42            5.0011    -7.8114    -1.5754 H       
  43 H43            3.5852    -3.9320     1.1195 H       
  44 H44            9.8408    -0.2424    -2.0947 H       
  45 H45            9.5151     0.5353    -0.5271 H       
  46 H46            9.9123    -1.1985    -0.5950 H       
@<TRIPOS>BOND
   1    1    2 ar
   2    1    6 ar
   3    2    3 ar
   4    2   29 1
   5    3    4 ar
   6    3   30 1
   7    4    5 ar
   8    4    7 1
   9    5    6 ar
  10    5   31 1
  11    6   12 1
  12    7    8 1
  13    7   11 2
  14    8    9 2
  15    8   32 1
  16    9   10 1
  17    9   16 1
  18   10   11 1
  19   10   13 1
  20   12   33 1
  21   12   34 1
  22   12   35 1
  23   13   14 1
  24   13   36 1
  25   13   37 1
  26   14   15 1
  27   14   23 1
  28   14   38 1
  29   15   39 1
  30   16   17 1
  31   16   40 1
  32   17   18 ar
  33   17   22 ar
  34   18   19 ar
  35   18   41 1
  36   19   20 ar
  37   19   42 1
  38   20   21 ar
  39   20   24 1
  40   21   22 ar
  41   21   28 1
  42   22   43 1
  43   23   44 1
  44   23   45 1
  45   23   46 1
  46   24   25 1
  47   24   26 1
  48   24   27 1

#	End of record

