#	Name: ASD01915171
#	Creating user name:	WinNT
#	Creation time:	15. 06. 2019 20:05

#	Modifying user name:	WinNT
#	Modification time:	15. 06. 2019 20:05

#	Program:	/corina/corina34_cracker 3.40 0067  02.08.2006

@<TRIPOS>MOLECULE
ASD01915171
  41   44    0    0    0
SMALL
NO_CHARGES


@<TRIPOS>ATOM
   1 C1             0.1077     1.5989     0.0318 C.ar    
   2 C2             0.1596     0.2149     0.0595 C.ar    
   3 C3            -1.0084    -0.5247     0.1003 C.ar    
   4 C4            -2.2323     0.1127     0.1140 C.ar    
   5 C5            -2.2917     1.5047     0.0868 C.ar    
   6 C6            -1.1137     2.2468     0.0506 C.ar    
   7 C7            -3.6059     2.1943     0.1014 C.2     
   8 N8            -3.8115     3.5305     0.0785 N.2     
   9 C9            -5.1117     3.6869     0.1030 C.2     
  10 O10           -5.6543     2.4658     0.1395 O.3     
  11 N11           -4.7818     1.6233     0.1332 N.2     
  12 C12           -5.8560     4.9972     0.0925 C.3     
  13 C13           -6.8006     5.1638    -1.1117 C.3     
  14 N14           -7.7661     5.7279    -0.1485 N.am    
  15 C15           -7.1267     4.9951     0.9616 C.3     
  16 C16           -8.8117     6.5729    -0.2442 C.2     
  17 C17           -9.6592     6.8371     0.9380 C.ar    
  18 O18           -9.0579     7.1177    -1.3026 O.2     
  19 C19          -10.6538     7.8149     0.8830 C.ar    
  20 C20          -11.4411     8.0565     1.9897 C.ar    
  21 C21          -11.2466     7.3322     3.1524 C.ar    
  22 C22          -10.2622     6.3619     3.2137 C.ar    
  23 C23           -9.4721     6.1060     2.1121 C.ar    
  24 F24            1.2517     2.3164    -0.0080 F       
  25 C25          -12.1105     7.6016     4.3575 C.3     
  26 H26            1.1152    -0.2882     0.0489 H       
  27 H27           -0.9624    -1.6035     0.1211 H       
  28 H28           -3.1432    -0.4667     0.1455 H       
  29 H29           -1.1542     3.3259     0.0297 H       
  30 H30           -5.2069     5.8560     0.2632 H       
  31 H31           -6.4470     5.8823    -1.8512 H       
  32 H32           -7.1207     4.2199    -1.5529 H       
  33 H33           -7.5426     4.0017     1.1294 H       
  34 H34           -7.0336     5.5789     1.8774 H       
  35 H35          -10.8064     8.3812    -0.0238 H       
  36 H36          -12.2108     8.8130     1.9486 H       
  37 H37          -10.1152     5.8002     4.1244 H       
  38 H38           -8.7042     5.3481     2.1611 H       
  39 H39          -12.9928     6.9625     4.3222 H       
  40 H40          -11.5446     7.3900     5.2648 H       
  41 H41          -12.4188     8.6471     4.3571 H       
@<TRIPOS>BOND
   1    1    2 ar
   2    1   24 1
   3    1    6 ar
   4    2    3 ar
   5    2   26 1
   6    3    4 ar
   7    3   27 1
   8    4    5 ar
   9    4   28 1
  10    5    6 ar
  11    5    7 1
  12    6   29 1
  13    7    8 1
  14    7   11 2
  15    8    9 2
  16    9   10 1
  17    9   12 1
  18   10   11 1
  19   12   13 1
  20   12   15 1
  21   12   30 1
  22   13   14 1
  23   13   31 1
  24   13   32 1
  25   14   15 1
  26   14   16 am
  27   15   33 1
  28   15   34 1
  29   16   17 1
  30   16   18 2
  31   17   19 ar
  32   17   23 ar
  33   19   20 ar
  34   19   35 1
  35   20   21 ar
  36   20   36 1
  37   21   22 ar
  38   21   25 1
  39   22   23 ar
  40   22   37 1
  41   23   38 1
  42   25   39 1
  43   25   40 1
  44   25   41 1

#	End of record

