#	Name: ASD04590116
#	Creating user name:	WinNT
#	Creation time:	15. 06. 2019 20:50

#	Modifying user name:	WinNT
#	Modification time:	15. 06. 2019 20:50

#	Program:	/corina/corina34_cracker 3.40 0067  02.08.2006

@<TRIPOS>MOLECULE
ASD04590116
  40   42    0    0    0
SMALL
NO_CHARGES


@<TRIPOS>ATOM
   1 N1             0.2402     1.4614     0.0684 N.pl3   
   2 N2            -0.1302     0.2335    -0.0017 N.2     
   3 C3             0.9060    -0.5664     0.1659 C.2     
   4 C4             2.0427     0.2599     0.3612 C.2     
   5 C5             1.5784     1.5358     0.2923 C.2     
   6 C6             0.8862    -2.0406     0.1526 C.2     
   7 N7            -0.2871    -2.6980     0.0652 N.am    
   8 O8             1.9285    -2.6633     0.2205 O.2     
   9 N9             3.3655    -0.1522     0.5793 N.3     
  10 C10            3.4976    -0.8353     1.8737 C.3     
  11 C11            4.2928     0.9843     0.4897 C.3     
  12 C12            5.7290     0.4815     0.6539 C.3     
  13 N13            5.8612    -0.2015     1.9483 N.3     
  14 C14            4.9339    -1.3381     2.0379 C.3     
  15 C15           -0.3007    -4.0922    -0.0568 C.ar    
  16 C16            0.7127    -4.7393    -0.7514 C.ar    
  17 C17            0.6974    -6.1152    -0.8706 C.ar    
  18 C18           -0.3279    -6.8493    -0.2984 C.ar    
  19 C19           -1.3395    -6.2060     0.3948 C.ar    
  20 C20           -1.3246    -4.8308     0.5216 C.ar    
  21 F21           -0.3415    -8.1950    -0.4169 F       
  22 C22            7.2466    -0.6333     2.1767 C.3     
  23 H23           -0.3496     2.2254    -0.0286 H       
  24 H24            2.1628     2.4381     0.3955 H       
  25 H25           -1.1222    -2.2048     0.0868 H       
  26 H26            3.2620    -0.1387     2.6783 H       
  27 H27            2.8101    -1.6803     1.9109 H       
  28 H28            4.1850     1.4659    -0.4822 H       
  29 H29            4.0662     1.7016     1.2785 H       
  30 H30            5.9647    -0.2151    -0.1506 H       
  31 H31            6.4166     1.3265     0.6167 H       
  32 H32            5.0417    -1.8196     3.0098 H       
  33 H33            5.1605    -2.0554     1.2491 H       
  34 H34            1.5121    -4.1671    -1.1985 H       
  35 H35            1.4853    -6.6189    -1.4108 H       
  36 H36           -2.1384    -6.7804     0.8400 H       
  37 H37           -2.1135    -4.3295     1.0626 H       
  38 H38            7.9037     0.2364     2.1718 H       
  39 H39            7.3163    -1.1358     3.1415 H       
  40 H40            7.5479    -1.3208     1.3864 H       
@<TRIPOS>BOND
   1    1    2 1
   2    1    5 1
   3    1   23 1
   4    2    3 2
   5    3    4 1
   6    3    6 1
   7    4    5 2
   8    4    9 1
   9    5   24 1
  10    6    7 am
  11    6    8 2
  12    7   15 1
  13    7   25 1
  14    9   10 1
  15    9   11 1
  16   10   14 1
  17   10   26 1
  18   10   27 1
  19   11   12 1
  20   11   28 1
  21   11   29 1
  22   12   13 1
  23   12   30 1
  24   12   31 1
  25   13   14 1
  26   13   22 1
  27   14   32 1
  28   14   33 1
  29   15   16 ar
  30   15   20 ar
  31   16   17 ar
  32   16   34 1
  33   17   18 ar
  34   17   35 1
  35   18   19 ar
  36   18   21 1
  37   19   20 ar
  38   19   36 1
  39   20   37 1
  40   22   38 1
  41   22   39 1
  42   22   40 1

#	End of record

