#	Name: ASD01917206
#	Creating user name:	WinNT
#	Creation time:	15. 06. 2019 20:08

#	Modifying user name:	WinNT
#	Modification time:	15. 06. 2019 20:08

#	Program:	/corina/corina34_cracker 3.40 0067  02.08.2006

@<TRIPOS>MOLECULE
ASD01917206
  49   52    0    0    0
SMALL
NO_CHARGES


@<TRIPOS>ATOM
   1 C1             0.0151     1.7071    -0.4188 C.ar    
   2 C2             0.1160     0.2967    -0.3978 C.ar    
   3 C3            -1.0257    -0.4896    -0.2421 C.ar    
   4 C4            -2.2480     0.1042    -0.1227 C.ar    
   5 C5            -2.3680     1.5018    -0.1578 C.ar    
   6 C6            -1.2387     2.3040    -0.3036 C.ar    
   7 N7             1.1465     2.4373    -0.5403 N.2     
   8 C8             2.3324     1.8952    -0.6672 C.2     
   9 N9             2.5009     0.5522    -0.7641 N.am    
  10 C10            1.4505    -0.2888    -0.5588 C.2     
  11 C11           -3.6975     2.1250    -0.0391 C.2     
  12 O12            1.6148    -1.4941    -0.5097 O.2     
  13 C13           -4.7760     1.5093    -0.5513 C.2     
  14 C14            3.5026     2.8430    -0.6478 C.3     
  15 C15            4.7462     2.2486    -1.2711 C.3     
  16 C16            4.9686     0.8114    -0.8465 C.3     
  17 C17            3.7704    -0.0643    -1.1345 C.3     
  18 C18            6.1811     0.2549    -1.5956 C.3     
  19 C19            5.2583     0.7772     0.6555 C.3     
  20 C20           -6.1229     2.0488    -0.2956 C.ar    
  21 N21           -6.2655     3.1452     0.4428 N.ar    
  22 C22           -7.4522     3.6581     0.6938 C.ar    
  23 C23           -8.6008     3.0702     0.1952 C.ar    
  24 C24           -8.4987     1.9235    -0.5809 C.ar    
  25 C25           -7.2409     1.4077    -0.8355 C.ar    
  26 C26           -4.6082     0.2668    -1.3874 C.3     
  27 H27           -0.9421    -1.5660    -0.2164 H       
  28 H28           -3.1304    -0.5063    -0.0004 H       
  29 H29           -1.3341     3.3795    -0.3273 H       
  30 H30           -3.8051     3.0768     0.4598 H       
  31 H31            3.2327     3.7466    -1.1944 H       
  32 H32            3.7210     3.1115     0.3858 H       
  33 H33            4.6505     2.2860    -2.3562 H       
  34 H34            5.6099     2.8431    -0.9732 H       
  35 H35            3.8794    -0.9983    -0.5832 H       
  36 H36            3.7511    -0.2909    -2.2005 H       
  37 H37            7.0616     0.8506    -1.3550 H       
  38 H38            6.3495    -0.7796    -1.2967 H       
  39 H39            5.9959     0.2975    -2.6689 H       
  40 H40            4.4105     1.1948     1.1986 H       
  41 H41            5.4199    -0.2535     0.9709 H       
  42 H42            6.1509     1.3661     0.8668 H       
  43 H43           -7.5297     4.5501     1.2977 H       
  44 H44           -9.5687     3.4993     0.4082 H       
  45 H45           -9.3818     1.4474    -0.9807 H       
  46 H46           -7.1251     0.5173    -1.4357 H       
  47 H47           -4.6887    -0.6137    -0.7500 H       
  48 H48           -5.3854     0.2350    -2.1509 H       
  49 H49           -3.6290     0.2805    -1.8661 H       
@<TRIPOS>BOND
   1    1    2 ar
   2    1    7 1
   3    1    6 ar
   4    2    3 ar
   5    2   10 1
   6    3    4 ar
   7    3   27 1
   8    4    5 ar
   9    4   28 1
  10    5    6 ar
  11    5   11 1
  12    6   29 1
  13    7    8 2
  14    8    9 1
  15    8   14 1
  16    9   10 am
  17    9   17 1
  18   10   12 2
  19   11   13 2
  20   11   30 1
  21   13   20 1
  22   13   26 1
  23   14   15 1
  24   14   31 1
  25   14   32 1
  26   15   16 1
  27   15   33 1
  28   15   34 1
  29   16   17 1
  30   16   18 1
  31   16   19 1
  32   17   35 1
  33   17   36 1
  34   18   37 1
  35   18   38 1
  36   18   39 1
  37   19   40 1
  38   19   41 1
  39   19   42 1
  40   20   21 ar
  41   20   25 ar
  42   21   22 ar
  43   22   23 ar
  44   22   43 1
  45   23   24 ar
  46   23   44 1
  47   24   25 ar
  48   24   45 1
  49   25   46 1
  50   26   47 1
  51   26   48 1
  52   26   49 1

#	End of record

