#	Name: ASD01150869
#	Creating user name:	WinNT
#	Creation time:	15. 06. 2019 19:05

#	Modifying user name:	WinNT
#	Modification time:	15. 06. 2019 19:05

#	Program:	/corina/corina34_cracker 3.40 0067  02.08.2006

@<TRIPOS>MOLECULE
ASD01150869
  49   51    0    0    0
SMALL
NO_CHARGES


@<TRIPOS>ATOM
   1 C1            -0.0180     1.4732     0.0101 C.ar    
   2 C2             0.0021    -0.0041     0.0020 C.2     
   3 N3            -1.1558    -0.6938     0.0094 N.am    
   4 O4             1.0629    -0.5975    -0.0113 O.2     
   5 C5            -1.1370    -2.0836     0.0017 C.2     
   6 N6            -0.0478    -2.8559    -0.0124 N.2     
   7 C7            -0.3959    -4.1265    -0.0152 C.2     
   8 N8            -1.7505    -4.2220    -0.0028 N.pl3   
   9 C9            -2.2479    -2.9178     0.0135 C.2     
  10 C10           -3.6019    -2.5267     0.0308 C.2     
  11 O11           -4.5752    -3.4630     0.0328 O.3     
  12 O12           -3.8942    -1.3445     0.0439 O.2     
  13 C13           -5.9254    -2.9952     0.0508 C.3     
  14 C14           -6.8795    -4.1912     0.0504 C.3     
  15 S15            0.7214    -5.4889    -0.0330 S.3     
  16 C16            2.2989    -4.6015    -0.0433 C.3     
  17 C17           -2.5386    -5.4569    -0.0018 C.3     
  18 C18            1.1799     2.1903     0.0026 C.ar    
  19 C19            1.1545     3.5703     0.0103 C.ar    
  20 C20           -0.0571     4.2433     0.0255 C.ar    
  21 C21           -1.2482     3.5363     0.0331 C.ar    
  22 C22           -1.2352     2.1576     0.0196 C.ar    
  23 Cl23          -0.0818     5.9791     0.0357 Cl      
  24 C24           -2.7958    -5.8875     1.4193 C.ar    
  25 C25           -3.9229    -5.4408     2.0831 C.ar    
  26 C26           -4.1603    -5.8354     3.3866 C.ar    
  27 C27           -3.2698    -6.6776     4.0272 C.ar    
  28 C28           -2.1405    -7.1252     3.3622 C.ar    
  29 C29           -1.9073    -6.7336     2.0564 C.ar    
  30 Cl30          -3.5671    -7.1730     5.6643 Cl      
  31 Cl31          -1.0214    -8.1819     4.1650 Cl      
  32 Cl32           2.6424     4.4644     0.0014 Cl      
  33 H33           -2.0023    -0.2203     0.0200 H       
  34 H34           -6.0912    -2.3983     0.9477 H       
  35 H35           -6.1096    -2.3831    -0.8321 H       
  36 H36           -6.7137    -4.7880    -0.8465 H       
  37 H37           -6.6953    -4.8032     0.9333 H       
  38 H38           -7.9094    -3.8344     0.0641 H       
  39 H39            3.1193    -5.3191    -0.0549 H       
  40 H40            2.3552    -3.9709    -0.9306 H       
  41 H41            2.3722    -3.9802     0.8493 H       
  42 H42           -3.4889    -5.2819    -0.5061 H       
  43 H43           -1.9886    -6.2394    -0.5246 H       
  44 H44            2.1242     1.6664    -0.0090 H       
  45 H45           -2.1892     4.0662     0.0453 H       
  46 H46           -2.1648     1.6079     0.0256 H       
  47 H47           -4.6184    -4.7828     1.5832 H       
  48 H48           -5.0410    -5.4857     3.9048 H       
  49 H49           -1.0268    -7.0823     1.5371 H       
@<TRIPOS>BOND
   1    1    2 1
   2    1   18 ar
   3    1   22 ar
   4    2    3 am
   5    2    4 2
   6    3    5 1
   7    3   33 1
   8    5    6 1
   9    5    9 2
  10    6    7 2
  11    7    8 1
  12    7   15 1
  13    8    9 1
  14    8   17 1
  15    9   10 1
  16   10   11 1
  17   10   12 2
  18   11   13 1
  19   13   14 1
  20   13   34 1
  21   13   35 1
  22   14   36 1
  23   14   37 1
  24   14   38 1
  25   15   16 1
  26   16   39 1
  27   16   40 1
  28   16   41 1
  29   17   24 1
  30   17   42 1
  31   17   43 1
  32   18   19 ar
  33   18   44 1
  34   19   20 ar
  35   19   32 1
  36   20   21 ar
  37   20   23 1
  38   21   22 ar
  39   21   45 1
  40   22   46 1
  41   24   25 ar
  42   24   29 ar
  43   25   26 ar
  44   25   47 1
  45   26   27 ar
  46   26   48 1
  47   27   28 ar
  48   27   30 1
  49   28   29 ar
  50   28   31 1
  51   29   49 1

#	End of record

