#	Name: ASD01813936
#	Creating user name:	WinNT
#	Creation time:	15. 06. 2019 19:31

#	Modifying user name:	WinNT
#	Modification time:	15. 06. 2019 19:31

#	Program:	/corina/corina34_cracker 3.40 0067  02.08.2006

@<TRIPOS>MOLECULE
ASD01813936
  63   67    0    0    0
SMALL
NO_CHARGES


@<TRIPOS>ATOM
   1 C1            -0.0169     1.3972     0.0097 C.2     
   2 C2             0.0021    -0.0041     0.0020 C.2     
   3 C3             1.1986    -0.6593    -0.0129 C.2     
   4 C4             2.3918     0.0821    -0.0204 C.2     
   5 N5             2.3437     1.4497    -0.0122 N.am    
   6 C6             1.1421     2.0937     0.0024 C.2     
   7 C7             3.6227    -0.5889    -0.0356 C.2     
   8 C8             4.7877     0.1218    -0.0425 C.2     
   9 C9             4.7345     1.5280    -0.0346 C.2     
  10 C10            3.4812     2.1736    -0.0189 C.2     
  11 O11            3.4258     3.3917    -0.0123 O.2     
  12 C12            5.9703     2.3140    -0.0413 C.2     
  13 O13            5.9124     3.6618    -0.0337 O.3     
  14 O14            7.0487     1.7516    -0.0537 O.2     
  15 C15            3.6593    -2.0954    -0.0439 C.3     
  16 N16            3.7787    -2.5747    -1.4274 N.3     
  17 C17            4.0549    -4.0171    -1.4629 C.3     
  18 C18            4.0193    -4.5119    -2.8811 C.2     
  19 N19            3.4533    -3.8192    -3.8750 N.am    
  20 C20            2.8493    -2.5039    -3.6821 C.3     
  21 C21            2.5615    -2.2718    -2.1975 C.3     
  22 C22            3.4389    -4.4058    -5.2173 C.3     
  23 O23            4.5255    -5.5843    -3.1352 O.2     
  24 C24            5.4175    -4.2801    -0.8753 C.ar    
  25 C25            5.6173    -5.3762    -0.0580 C.ar    
  26 C26            6.8695    -5.6176     0.4817 C.ar    
  27 C27            7.9198    -4.7603     0.2017 C.ar    
  28 C28            7.7176    -3.6645    -0.6161 C.ar    
  29 C29            6.4686    -3.4277    -1.1588 C.ar    
  30 F30            7.0660    -6.6888     1.2813 F       
  31 C31            2.1658    -5.2349    -5.3980 C.3     
  32 C32            2.1511    -5.8384    -6.7788 C.ar    
  33 C33            2.7148    -7.0818    -6.9957 C.ar    
  34 C34            2.7013    -7.6353    -8.2624 C.ar    
  35 C35            2.1237    -6.9456    -9.3119 C.ar    
  36 C36            1.5592    -5.7026    -9.0948 C.ar    
  37 C37            1.5688    -5.1510    -7.8273 C.ar    
  38 H38           -0.9605     1.9226     0.0170 H       
  39 H39           -0.9233    -0.5609     0.0082 H       
  40 H40            1.2282    -1.7389    -0.0187 H       
  41 H41            1.1156     3.1733     0.0087 H       
  42 H42            5.7393    -0.3889    -0.0536 H       
  43 H43            6.7544     4.1373    -0.0385 H       
  44 H44            4.5153    -2.4412     0.5356 H       
  45 H45            2.7412    -2.4836     0.3971 H       
  46 H46            3.3020    -4.5441    -0.8768 H       
  47 H47            3.5333    -1.7355    -4.0423 H       
  48 H48            1.9171    -2.4481    -4.2442 H       
  49 H49            1.7522    -2.9270    -1.8752 H       
  50 H50            2.2778    -1.2315    -2.0384 H       
  51 H51            3.4630    -3.6101    -5.9619 H       
  52 H52            4.3112    -5.0473    -5.3428 H       
  53 H53            4.7971    -6.0441     0.1600 H       
  54 H54            8.8968    -4.9475     0.6224 H       
  55 H55            8.5368    -2.9956    -0.8347 H       
  56 H56            6.3115    -2.5715    -1.7980 H       
  57 H57            2.1418    -6.0307    -4.6534 H       
  58 H58            1.2936    -4.5934    -5.2725 H       
  59 H59            3.1660    -7.6206    -6.1757 H       
  60 H60            3.1423    -8.6065    -8.4320 H       
  61 H61            2.1137    -7.3778   -10.3017 H       
  62 H62            1.1082    -5.1636    -9.9149 H       
  63 H63            1.1278    -4.1799    -7.6577 H       
@<TRIPOS>BOND
   1    1    2 1
   2    1    6 2
   3    1   38 1
   4    2    3 2
   5    2   39 1
   6    3    4 1
   7    3   40 1
   8    4    5 1
   9    4    7 2
  10    5    6 1
  11    5   10 am
  12    6   41 1
  13    7    8 1
  14    7   15 1
  15    8    9 2
  16    8   42 1
  17    9   10 1
  18    9   12 1
  19   10   11 2
  20   12   13 1
  21   12   14 2
  22   13   43 1
  23   15   16 1
  24   15   44 1
  25   15   45 1
  26   16   17 1
  27   16   21 1
  28   17   18 1
  29   17   24 1
  30   17   46 1
  31   18   19 am
  32   18   23 2
  33   19   20 1
  34   19   22 1
  35   20   21 1
  36   20   47 1
  37   20   48 1
  38   21   49 1
  39   21   50 1
  40   22   31 1
  41   22   51 1
  42   22   52 1
  43   24   25 ar
  44   24   29 ar
  45   25   26 ar
  46   25   53 1
  47   26   27 ar
  48   26   30 1
  49   27   28 ar
  50   27   54 1
  51   28   29 ar
  52   28   55 1
  53   29   56 1
  54   31   32 1
  55   31   57 1
  56   31   58 1
  57   32   33 ar
  58   32   37 ar
  59   33   34 ar
  60   33   59 1
  61   34   35 ar
  62   34   60 1
  63   35   36 ar
  64   35   61 1
  65   36   37 ar
  66   36   62 1
  67   37   63 1

#	End of record

