#	Name: ASD01900022
#	Creating user name:	WinNT
#	Creation time:	15. 06. 2019 19:51

#	Modifying user name:	WinNT
#	Modification time:	15. 06. 2019 19:51

#	Program:	/corina/corina34_cracker 3.40 0067  02.08.2006

@<TRIPOS>MOLECULE
ASD01900022
  35   36    0    0    0
SMALL
NO_CHARGES


@<TRIPOS>ATOM
   1 C1            -0.0103     1.5325    -0.0084 C.3     
   2 C2             0.0069     0.0026    -0.0142 C.3     
   3 C3             0.7274    -0.4945    -1.2690 C.3     
   4 C4             2.1641     0.0317    -1.2745 C.3     
   5 C5             2.1468     1.5616    -1.2687 C.3     
   6 C6             1.4263     2.0588    -0.0139 C.3     
   7 C7             3.5618     2.0799    -1.2741 C.2     
   8 C8             2.8864    -0.4671    -0.0496 C.2     
   9 O9             3.7922     3.4023    -1.2703 O.3     
  10 N10            3.0256    -1.7915     0.1581 N.am    
  11 O11            4.4890     1.3052    -1.2817 O.2     
  12 O12            3.3426     0.3232     0.7494 O.2     
  13 C13            3.7915    -2.2547     1.2348 C.ar    
  14 C14            3.4200    -3.4125     1.9048 C.ar    
  15 C15            4.1763    -3.8688     2.9672 C.ar    
  16 C16            5.3044    -3.1729     3.3647 C.ar    
  17 C17            5.6781    -2.0155     2.6977 C.ar    
  18 C18            4.9268    -1.5596     1.6301 C.ar    
  19 F19            6.7793    -1.3368     3.0876 F       
  20 H20            1.6243     1.9224    -2.1546 H       
  21 H21            2.6773    -0.3225    -2.1684 H       
  22 F22            6.0424    -3.6210     4.4039 F       
  23 H23           -0.5328     1.8933    -0.8943 H       
  24 H24           -0.5236     1.8867     0.8856 H       
  25 H25            0.5294    -0.3582     0.8718 H       
  26 H26           -1.0166    -0.3723    -0.0103 H       
  27 H27            0.7397    -1.5845    -1.2731 H       
  28 H28            0.2049    -0.1337    -2.1550 H       
  29 H29            1.4140     3.1487    -0.0097 H       
  30 H30            1.9488     1.6980     0.8721 H       
  31 H31            4.7164     3.6869    -1.2741 H       
  32 H32            2.5951    -2.4238    -0.4384 H       
  33 H33            2.5395    -3.9562     1.5957 H       
  34 H34            3.8865    -4.7694     3.4882 H       
  35 H35            5.2174    -0.6587     1.1101 H       
@<TRIPOS>BOND
   1    1    2 1
   2    1    6 1
   3    1   23 1
   4    1   24 1
   5    2    3 1
   6    2   25 1
   7    2   26 1
   8    3    4 1
   9    3   27 1
  10    3   28 1
  11    4    5 1
  12    4    8 1
  13    4   21 1
  14    5    6 1
  15    5    7 1
  16    5   20 1
  17    6   29 1
  18    6   30 1
  19    7    9 1
  20    7   11 2
  21    8   10 am
  22    8   12 2
  23    9   31 1
  24   10   13 1
  25   10   32 1
  26   13   14 ar
  27   13   18 ar
  28   14   15 ar
  29   14   33 1
  30   15   16 ar
  31   15   34 1
  32   16   17 ar
  33   16   22 1
  34   17   18 ar
  35   17   19 1
  36   18   35 1

#	End of record

