#	Name: ASD00431409
#	Creating user name:	WinNT
#	Creation time:	15. 06. 2019 18:35

#	Modifying user name:	WinNT
#	Modification time:	15. 06. 2019 18:35

#	Program:	/corina/corina34_cracker 3.40 0067  02.08.2006

@<TRIPOS>MOLECULE
ASD00431409
  32   33    0    0    0
SMALL
NO_CHARGES


@<TRIPOS>ATOM
   1 S1            -2.8015     1.3285     0.0262 S.3     
   2 C2            -2.3683    -0.3242    -0.0291 C.2     
   3 N3            -3.4302    -1.0671    -0.1131 N.2     
   4 C4            -4.5903    -0.4536    -0.1395 C.2     
   5 C5            -4.5068     0.8968    -0.0737 C.2     
   6 C6            -5.6347     1.8326    -0.0835 C.2     
   7 O7            -1.0986    -0.7921     0.0087 O.3     
   8 C8             0.3526    -2.6818    -0.0097 C.ar    
   9 C9            -0.9162    -2.1362     0.1043 C.ar    
  10 C10           -2.0016    -2.9812     0.3184 C.ar    
  11 C11           -1.7691    -4.3424     0.4096 C.ar    
  12 C12           -0.4701    -4.8170     0.2854 C.ar    
  13 N13            0.5373    -3.9849     0.0825 N.ar    
  14 O14           -0.2316    -6.1505     0.3738 O.3     
  15 C15            1.1254    -6.5772     0.2379 C.3     
  16 C16            1.7924    -6.6024     1.6147 C.3     
  17 C17            1.1602    -7.9803    -0.3713 C.3     
  18 N18           -5.4183     3.1106    -0.0148 N.2     
  19 O19           -6.5080     4.0147    -0.0242 O.3     
  20 H20           -5.5307    -0.9803    -0.2082 H       
  21 H21           -6.6459     1.4589    -0.1478 H       
  22 H22            1.1992    -2.0333    -0.1803 H       
  23 H23           -3.0015    -2.5838     0.4116 H       
  24 H24           -2.5878    -5.0269     0.5757 H       
  25 H25            1.6604    -5.8853    -0.4125 H       
  26 H26            2.8275    -6.9279     1.5110 H       
  27 H27            1.7676    -5.6028     2.0487 H       
  28 H28            1.2573    -7.2943     2.2651 H       
  29 H29            0.6850    -7.9623    -1.3521 H       
  30 H30            2.1953    -8.3058    -0.4750 H       
  31 H31            0.6251    -8.6722     0.2791 H       
  32 H32           -6.2481     4.9445     0.0305 H       
@<TRIPOS>BOND
   1    1    2 1
   2    1    5 1
   3    2    3 2
   4    2    7 1
   5    3    4 1
   6    4    5 2
   7    4   20 1
   8    5    6 1
   9    6   18 2
  10    6   21 1
  11    7    9 1
  12    8    9 ar
  13    8   13 ar
  14    8   22 1
  15    9   10 ar
  16   10   11 ar
  17   10   23 1
  18   11   12 ar
  19   11   24 1
  20   12   13 ar
  21   12   14 1
  22   14   15 1
  23   15   16 1
  24   15   17 1
  25   15   25 1
  26   16   26 1
  27   16   27 1
  28   16   28 1
  29   17   29 1
  30   17   30 1
  31   17   31 1
  32   18   19 1
  33   19   32 1

#	End of record

