#	Name: ASD01881538
#	Creating user name:	WinNT
#	Creation time:	15. 06. 2019 19:42

#	Modifying user name:	WinNT
#	Modification time:	15. 06. 2019 19:42

#	Program:	/corina/corina34_cracker 3.40 0067  02.08.2006

@<TRIPOS>MOLECULE
ASD01881538
  56   59    0    0    0
SMALL
NO_CHARGES


@<TRIPOS>ATOM
   1 C1            -0.0717     1.5368     0.1465 C.ar    
   2 C2            -0.1026     0.1766    -0.0753 C.ar    
   3 C3             1.0834    -0.5121    -0.2909 C.ar    
   4 C4             2.3057     0.1807    -0.2816 C.ar    
   5 C5             2.3127     1.5595    -0.0543 C.ar    
   6 C6             1.1359     2.2207     0.1555 C.ar    
   7 N7             1.3965    -1.8341    -0.5364 N.pl3   
   8 C8             2.7485    -1.9124    -0.6657 C.2     
   9 N9             3.2808    -0.7345    -0.5169 N.2     
  10 C10            0.4487    -2.9465    -0.6379 C.3     
  11 C11           -1.4176    -0.5594    -0.0832 C.3     
  12 C12            3.5175    -3.1788    -0.9409 C.3     
  13 N13            3.6501    -3.3658    -2.3919 N.3     
  14 C14            4.5890    -4.4523    -2.6989 C.3     
  15 C15            4.8133    -4.5225    -4.2111 C.3     
  16 C16            3.4732    -4.7680    -4.9100 C.3     
  17 C17            2.4983    -3.6484    -4.5352 C.3     
  18 C18            2.3412    -3.6036    -3.0136 C.3     
  19 C19            3.6815    -4.7786    -6.4257 C.3     
  20 C20            2.3680    -5.1470    -7.1185 C.3     
  21 O21            2.5625    -5.1569    -8.5341 O.3     
  22 C22            1.4853    -5.4676    -9.3030 C.ar    
  23 C23            1.6037    -5.4956   -10.6844 C.ar    
  24 C24            0.5086    -5.8120   -11.4659 C.ar    
  25 C25           -0.7069    -6.1006   -10.8712 C.ar    
  26 C26           -0.8281    -6.0727    -9.4899 C.ar    
  27 C27            0.2684    -5.7624    -8.7059 C.ar    
  28 F28           -2.0154    -6.3542    -8.9099 F       
  29 F29           -1.7766    -6.4092   -11.6366 F       
  30 H30           -0.9938     2.0747     0.3099 H       
  31 H31            3.2468     2.1015    -0.0453 H       
  32 H32            1.1454     3.2863     0.3305 H       
  33 H33            0.0381    -2.9831    -1.6469 H       
  34 H34            0.9627    -3.8828    -0.4207 H       
  35 H35           -0.3600    -2.8014     0.0784 H       
  36 H36           -1.7659    -0.6701    -1.1101 H       
  37 H37           -1.2853    -1.5447     0.3638 H       
  38 H38           -2.1529     0.0042     0.4910 H       
  39 H39            4.5081    -3.1072    -0.4917 H       
  40 H40            2.9848    -4.0278    -0.5123 H       
  41 H41            5.5391    -4.2633    -2.1992 H       
  42 H42            4.1766    -5.3985    -2.3486 H       
  43 H43            5.2386    -3.5815    -4.5599 H       
  44 H44            5.4981    -5.3390    -4.4399 H       
  45 H45            3.0662    -5.7274    -4.5906 H       
  46 H46            2.8872    -2.6936    -4.8892 H       
  47 H47            1.5292    -3.8404    -4.9957 H       
  48 H48            1.9393    -4.5537    -2.6619 H       
  49 H49            1.6586    -2.7981    -2.7426 H       
  50 H50            4.0013    -3.7901    -6.7554 H       
  51 H51            4.4458    -5.5121    -6.6824 H       
  52 H52            2.0482    -6.1355    -6.7888 H       
  53 H53            1.6037    -4.4135    -6.8618 H       
  54 H54            2.5519    -5.2698   -11.1497 H       
  55 H55            0.6016    -5.8336   -12.5417 H       
  56 H56            0.1749    -5.7405    -7.6302 H       
@<TRIPOS>BOND
   1    1    2 ar
   2    1    6 ar
   3    1   30 1
   4    2    3 ar
   5    2   11 1
   6    3    4 ar
   7    3    7 1
   8    4    5 ar
   9    4    9 1
  10    5    6 ar
  11    5   31 1
  12    6   32 1
  13    7    8 1
  14    7   10 1
  15    8    9 2
  16    8   12 1
  17   10   33 1
  18   10   34 1
  19   10   35 1
  20   11   36 1
  21   11   37 1
  22   11   38 1
  23   12   13 1
  24   12   39 1
  25   12   40 1
  26   13   14 1
  27   13   18 1
  28   14   15 1
  29   14   41 1
  30   14   42 1
  31   15   16 1
  32   15   43 1
  33   15   44 1
  34   16   17 1
  35   16   19 1
  36   16   45 1
  37   17   18 1
  38   17   46 1
  39   17   47 1
  40   18   48 1
  41   18   49 1
  42   19   20 1
  43   19   50 1
  44   19   51 1
  45   20   21 1
  46   20   52 1
  47   20   53 1
  48   21   22 1
  49   22   23 ar
  50   22   27 ar
  51   23   24 ar
  52   23   54 1
  53   24   25 ar
  54   24   55 1
  55   25   26 ar
  56   25   29 1
  57   26   27 ar
  58   26   28 1
  59   27   56 1

#	End of record

