#	Name: ASD03330890
#	Creating user name:	WinNT
#	Creation time:	15. 06. 2019 20:38

#	Modifying user name:	WinNT
#	Modification time:	15. 06. 2019 20:38

#	Program:	/corina/corina34_cracker 3.40 0067  02.08.2006

@<TRIPOS>MOLECULE
ASD03330890
  57   59    0    0    0
SMALL
NO_CHARGES


@<TRIPOS>ATOM
   1 N1             0.1657     0.9960    -0.0326 N.pl3   
   2 C2             0.0603    -0.3446     0.1815 C.2     
   3 C3             1.1916    -1.2641     0.5613 C.3     
   4 N4             1.9599    -0.6559     1.6586 N.3     
   5 C5             3.0271     0.2049     1.1452 C.3     
   6 C6             2.6020     0.8872    -0.1518 C.3     
   7 C7             1.3913     1.7876     0.1082 C.3     
   8 C8            -1.0706     1.4540    -0.3858 C.2     
   9 N9            -1.9112     0.4450    -0.3740 N.2     
  10 C10           -1.2413    -0.6834    -0.0234 C.2     
  11 C11           -1.8199    -2.0315     0.1101 C.2     
  12 O12           -1.1129    -2.9676     0.4315 O.2     
  13 N13           -3.1326    -2.2277    -0.1238 N.am    
  14 C14            2.5000    -1.6852     2.5568 C.3     
  15 C15           -4.9423    -3.6726    -0.8493 C.2     
  16 C16           -3.7080    -3.5684     0.0090 C.3     
  17 C17           -4.0808    -3.8208     1.4712 C.3     
  18 C18           -5.1563    -2.8219     1.9031 C.3     
  19 O19           -5.5861    -2.6781    -1.1089 O.2     
  20 N20           -5.3306    -4.8710    -1.3285 N.am    
  21 C21           -6.5876    -4.9904    -2.0714 C.3     
  22 C22           -4.6180    -5.2455     1.6220 C.3     
  23 C23           -2.8411    -3.6475     2.3509 C.3     
  24 C24           -2.1563     3.1864    -1.7938 C.2     
  25 C25           -1.4071     2.8521    -0.7244 C.2     
  26 C26           -0.9765     3.9426     0.0367 C.2     
  27 C27           -1.3850     5.1186    -0.4328 C.2     
  28 S28           -2.3477     4.8796    -1.8833 S.3     
  29 Cl29          -2.8265     2.0536    -2.9258 Cl      
  30 H30            0.7881    -2.2229     0.8868 H       
  31 H31            1.8430    -1.4152    -0.2995 H       
  32 H32            3.2628     0.9657     1.8894 H       
  33 H33            3.9151    -0.3988     0.9578 H       
  34 H34            3.4270     1.4901    -0.5314 H       
  35 H35            2.3384     0.1299    -0.8901 H       
  36 H36            1.3827     2.6042    -0.6137 H       
  37 H37            1.4491     2.1932     1.1183 H       
  38 H38           -3.6964    -1.4811    -0.3801 H       
  39 H39            3.1016    -2.3895     1.9822 H       
  40 H40            3.1213    -1.2134     3.3181 H       
  41 H41            1.6780    -2.2164     3.0366 H       
  42 H42           -2.9777    -4.3107    -0.3131 H       
  43 H43           -6.0395    -2.9454     1.2764 H       
  44 H44           -5.4219    -3.0018     2.9448 H       
  45 H45           -4.7736    -1.8070     1.7957 H       
  46 H46           -4.7779    -5.6544    -1.1814 H       
  47 H47           -7.4165    -4.6799    -1.4353 H       
  48 H48           -6.5494    -4.3533    -2.9550 H       
  49 H49           -6.7323    -6.0267    -2.3766 H       
  50 H50           -3.8307    -5.9585     1.3773 H       
  51 H51           -4.9450    -5.4037     2.6497 H       
  52 H52           -5.4611    -5.3893     0.9462 H       
  53 H53           -2.4583    -2.6326     2.2436 H       
  54 H54           -3.1067    -3.8274     3.3927 H       
  55 H55           -2.0749    -4.3592     2.0433 H       
  56 H56           -0.3690     3.8401     0.9238 H       
  57 H57           -1.1587     6.0768     0.0111 H       
@<TRIPOS>BOND
   1    1    2 1
   2    1    7 1
   3    1    8 1
   4    2    3 1
   5    2   10 2
   6    3    4 1
   7    3   30 1
   8    3   31 1
   9    4    5 1
  10    4   14 1
  11    5    6 1
  12    5   32 1
  13    5   33 1
  14    6    7 1
  15    6   34 1
  16    6   35 1
  17    7   36 1
  18    7   37 1
  19    8    9 2
  20    8   25 1
  21    9   10 1
  22   10   11 1
  23   11   12 2
  24   11   13 am
  25   13   16 1
  26   13   38 1
  27   14   39 1
  28   14   40 1
  29   14   41 1
  30   15   19 2
  31   15   20 am
  32   15   16 1
  33   16   17 1
  34   16   42 1
  35   17   18 1
  36   17   22 1
  37   17   23 1
  38   18   43 1
  39   18   44 1
  40   18   45 1
  41   20   21 1
  42   20   46 1
  43   21   47 1
  44   21   48 1
  45   21   49 1
  46   22   50 1
  47   22   51 1
  48   22   52 1
  49   23   53 1
  50   23   54 1
  51   23   55 1
  52   24   25 2
  53   24   28 1
  54   24   29 1
  55   25   26 1
  56   26   27 2
  57   26   56 1
  58   27   28 1
  59   27   57 1

#	End of record

