#	Name: ASD06582004
#	Creating user name:	WinNT
#	Creation time:	15. 06. 2019 21:06

#	Modifying user name:	WinNT
#	Modification time:	15. 06. 2019 21:06

#	Program:	/corina/corina34_cracker 3.40 0067  02.08.2006

@<TRIPOS>MOLECULE
ASD06582004
  38   38    0    0    0
SMALL
NO_CHARGES


@<TRIPOS>ATOM
   1 C1             0.5974     1.2977     1.1402 C.ar    
   2 C2             0.2345     0.0137     0.7181 C.ar    
   3 N3            -1.0259    -0.2511     0.3998 N.ar    
   4 C4            -1.9443     0.7038     0.4821 C.ar    
   5 C5            -1.5769     1.9904     0.9059 C.ar    
   6 N6            -0.3100     2.2463     1.2287 N.ar    
   7 Cl7            2.2484     1.6380     1.5553 Cl      
   8 N8             1.1930    -0.9822     0.6319 N.3     
   9 N9            -3.2600     0.4317     0.1506 N.pl3   
  10 C10           -2.5941     3.0570     0.9995 C.2     
  11 N11           -2.2395     4.2891     1.3925 N.2     
  12 O12           -3.7558     2.8175     0.7196 O.2     
  13 C13           -2.8905     4.8815     2.3812 C.2     
  14 N14           -3.8444     4.1975     3.0762 N.pl3   
  15 N15           -2.6075     6.1760     2.7051 N.pl3   
  16 C16            0.6077    -2.3014     0.9063 C.3     
  17 C17            1.8560    -0.9628    -0.6788 C.3     
  18 C18            3.1611    -1.7576    -0.6021 C.3     
  19 C19           -0.0463    -2.8438    -0.3661 C.3     
  20 C20            1.7072    -3.2619     1.3640 C.3     
  21 H21           -3.4850    -0.3968    -0.3007 H       
  22 H22           -3.9572     1.0696     0.3696 H       
  23 H23           -3.9817     3.2520     2.9089 H       
  24 H24           -4.3853     4.6566     3.7376 H       
  25 H25           -1.9292     6.6624     2.2110 H       
  26 H26           -3.0845     6.6101     3.4296 H       
  27 H27           -0.1439    -2.2094     1.6903 H       
  28 H28            1.2002    -1.4123    -1.4245 H       
  29 H29            2.0740     0.0673    -0.9605 H       
  30 H30            3.8264    -1.4422    -1.4058 H       
  31 H31            3.6412    -1.5759     0.3595 H       
  32 H32            2.9455    -2.8211    -0.7052 H       
  33 H33           -0.4806    -3.8226    -0.1625 H       
  34 H34           -0.8295    -2.1595    -0.6921 H       
  35 H35            0.7054    -2.9358    -1.1501 H       
  36 H36            2.2836    -2.7992     2.1651 H       
  37 H37            1.2552    -4.1847     1.7278 H       
  38 H38            2.3660    -3.4862     0.5251 H       
@<TRIPOS>BOND
   1    1    2 ar
   2    1    7 1
   3    1    6 ar
   4    2    3 ar
   5    2    8 1
   6    3    4 ar
   7    4    5 ar
   8    4    9 1
   9    5    6 ar
  10    5   10 1
  11    8   16 1
  12    8   17 1
  13    9   21 1
  14    9   22 1
  15   10   11 1
  16   10   12 2
  17   11   13 2
  18   13   14 1
  19   13   15 1
  20   14   23 1
  21   14   24 1
  22   15   25 1
  23   15   26 1
  24   16   19 1
  25   16   20 1
  26   16   27 1
  27   17   18 1
  28   17   28 1
  29   17   29 1
  30   18   30 1
  31   18   31 1
  32   18   32 1
  33   19   33 1
  34   19   34 1
  35   19   35 1
  36   20   36 1
  37   20   37 1
  38   20   38 1

#	End of record

