#	Name: ASD04880310
#	Creating user name:	WinNT
#	Creation time:	15. 06. 2019 20:53

#	Modifying user name:	WinNT
#	Modification time:	15. 06. 2019 20:53

#	Program:	/corina/corina34_cracker 3.40 0067  02.08.2006

@<TRIPOS>MOLECULE
ASD04880310
  51   54    0    0    0
SMALL
NO_CHARGES


@<TRIPOS>ATOM
   1 C1            -0.0123     1.3684    -0.2515 C.ar    
   2 C2             0.0104    -0.0183    -0.2884 C.ar    
   3 C3             1.2258    -0.6992    -0.2772 C.ar    
   4 C4             2.4133     0.0067    -0.2293 C.ar    
   5 C5             2.3908     1.4034    -0.1926 C.ar    
   6 C6             1.1681     2.0795    -0.2040 C.ar    
   7 C7             3.6540     2.1616    -0.1409 C.2     
   8 N8             4.8331     1.6419    -0.1259 N.2     
   9 N9             5.8660     2.5758    -0.0756 N.am    
  10 C10            5.2848     3.9275    -0.0538 C.3     
  11 C11            3.7659     3.6690    -0.1040 C.3     
  12 C12            7.1825     2.2880    -0.0507 C.2     
  13 C13            7.6300     0.8830     0.0497 C.ar    
  14 O14            8.0020     3.1843    -0.1107 O.2     
  15 C15            8.9850     0.5690    -0.0680 C.ar    
  16 C16            9.3963    -0.7466     0.0268 C.ar    
  17 C17            8.4660    -1.7520     0.2382 C.ar    
  18 C18            7.1224    -1.4454     0.3550 C.ar    
  19 C19            6.7000    -0.1347     0.2683 C.ar    
  20 C20            3.1648     4.2743    -1.3463 C.ar    
  21 C21            2.1248     5.1789    -1.2405 C.ar    
  22 C22            1.5734     5.7347    -2.3796 C.ar    
  23 C23            2.0624     5.3856    -3.6255 C.ar    
  24 C24            3.1030     4.4804    -3.7309 C.ar    
  25 C25            3.6572     3.9291    -2.5910 C.ar    
  26 Br26           1.3080     6.1451    -5.1844 Br      
  27 O27           -1.1563    -0.7145    -0.3351 O.3     
  28 O28            1.2440    -2.0586    -0.3131 O.3     
  29 C29           -2.3658     0.0464    -0.3435 C.3     
  30 C30            2.5254    -2.6909    -0.2990 C.3     
  31 F31           10.7070    -1.0535    -0.0872 F       
  32 H32           -0.9567     1.8922    -0.2645 H       
  33 H33            3.3561    -0.5199    -0.2199 H       
  34 H34            1.1475     3.1590    -0.1753 H       
  35 H35            5.5587     4.4480     0.8639 H       
  36 H36            5.6027     4.4959    -0.9279 H       
  37 H37            3.2827     4.0665     0.7885 H       
  38 H38            9.7100     1.3523    -0.2331 H       
  39 H39            8.7916    -2.7791     0.3117 H       
  40 H40            6.4024    -2.2336     0.5189 H       
  41 H41            5.6509     0.1029     0.3646 H       
  42 H42            1.7428     5.4511    -0.2676 H       
  43 H43            0.7607     6.4411    -2.2968 H       
  44 H44            3.4848     4.2072    -4.7035 H       
  45 H45            4.4725     3.2255    -2.6730 H       
  46 H46           -2.4213     0.6505     0.5620 H       
  47 H47           -2.3788     0.6986    -1.2168 H       
  48 H48           -3.2200    -0.6296    -0.3822 H       
  49 H49            2.3971    -3.7728    -0.3310 H       
  50 H50            3.0997    -2.3673    -1.1671 H       
  51 H51            3.0568    -2.4147     0.6117 H       
@<TRIPOS>BOND
   1    1    2 ar
   2    1    6 ar
   3    1   32 1
   4    2    3 ar
   5    2   27 1
   6    3    4 ar
   7    3   28 1
   8    4    5 ar
   9    4   33 1
  10    5    6 ar
  11    5    7 1
  12    6   34 1
  13    7    8 2
  14    7   11 1
  15    8    9 1
  16    9   10 1
  17    9   12 am
  18   10   11 1
  19   10   35 1
  20   10   36 1
  21   11   20 1
  22   11   37 1
  23   12   13 1
  24   12   14 2
  25   13   15 ar
  26   13   19 ar
  27   15   16 ar
  28   15   38 1
  29   16   17 ar
  30   16   31 1
  31   17   18 ar
  32   17   39 1
  33   18   19 ar
  34   18   40 1
  35   19   41 1
  36   20   21 ar
  37   20   25 ar
  38   21   22 ar
  39   21   42 1
  40   22   23 ar
  41   22   43 1
  42   23   24 ar
  43   23   26 1
  44   24   25 ar
  45   24   44 1
  46   25   45 1
  47   27   29 1
  48   28   30 1
  49   29   46 1
  50   29   47 1
  51   29   48 1
  52   30   49 1
  53   30   50 1
  54   30   51 1

#	End of record

