#	Name: ASD02560080
#	Creating user name:	WinNT
#	Creation time:	15. 06. 2019 20:24

#	Modifying user name:	WinNT
#	Modification time:	15. 06. 2019 20:24

#	Program:	/corina/corina34_cracker 3.40 0067  02.08.2006

@<TRIPOS>MOLECULE
ASD02560080
  49   51    0    0    0
SMALL
NO_CHARGES


@<TRIPOS>ATOM
   1 C1             0.6525     1.4409    -1.6568 C.3     
   2 C2             0.9218    -0.0634    -1.6249 C.3     
   3 C3             1.9157    -0.3986    -0.5444 C.ar    
   4 C4             2.7693     0.5602    -0.0229 C.ar    
   5 N5             2.7305     1.8835    -0.4839 N.am    
   6 C6             1.9937     2.1834    -1.7193 C.3     
   7 C7             1.9726    -1.6972    -0.0658 C.ar    
   8 C8             2.8749    -2.0365     0.9234 C.ar    
   9 C9             3.7288    -1.0804     1.4425 C.ar    
  10 C10            3.6778     0.2162     0.9717 C.ar    
  11 C11            3.3585     2.8641     0.1946 C.2     
  12 S12            4.6361     3.7952    -0.5835 S.3     
  13 O13            3.0434     3.1064     1.3440 O.2     
  14 C14            5.0769     4.9151     0.7684 C.3     
  15 C15            6.1843     5.8332     0.3193 C.2     
  16 N16            6.6777     6.7584     1.1662 N.am    
  17 O17            6.6316     5.7396    -0.8042 O.2     
  18 C18            7.7702     7.5455     0.7836 C.ar    
  19 C19            7.9235     7.9251    -0.5427 C.ar    
  20 C20            9.0026     8.7025    -0.9172 C.ar    
  21 C21            9.9298     9.1022     0.0271 C.ar    
  22 C22            9.7808     8.7261     1.3497 C.ar    
  23 C23            8.7008     7.9535     1.7320 C.ar    
  24 Cl24           8.5137     7.4820     3.3923 Cl      
  25 S25           11.3050    10.0925    -0.4555 S.o2    
  26 O26           12.3148     9.8804     0.5215 O.2     
  27 O27           11.5033     9.8552    -1.8424 O.2     
  28 N28           10.8423    11.6763    -0.3136 N.am    
  29 C29            4.6080     1.2592     1.5355 C.3     
  30 H30            0.0576     1.6869    -2.5363 H       
  31 H31            0.1142     1.7347    -0.7557 H       
  32 H32           -0.0117    -0.5919    -1.4316 H       
  33 H33            1.3195    -0.3781    -2.5897 H       
  34 H34            2.5652     1.8416    -2.5822 H       
  35 H35            1.8184     3.2567    -1.7932 H       
  36 H36            1.3083    -2.4479    -0.4678 H       
  37 H37            2.9133    -3.0507     1.2927 H       
  38 H38            4.4343    -1.3478     2.2153 H       
  39 H39            4.2055     5.5069     1.0487 H       
  40 H40            5.4127     4.3336     1.6270 H       
  41 H41            6.2758     6.8788     2.0407 H       
  42 H42            7.2001     7.6129    -1.2814 H       
  43 H43            9.1220     8.9980    -1.9491 H       
  44 H44           10.5069     9.0400     2.0850 H       
  45 H45           11.5006    12.3568    -0.1027 H       
  46 H46            9.9131    11.9234    -0.4413 H       
  47 H47            5.0134     1.8619     0.7228 H       
  48 H48            4.0593     1.9008     2.2250 H       
  49 H49            5.4242     0.7692     2.0666 H       
@<TRIPOS>BOND
   1    1    2 1
   2    1    6 1
   3    1   30 1
   4    1   31 1
   5    2    3 1
   6    2   32 1
   7    2   33 1
   8    3    4 ar
   9    3    7 ar
  10    4    5 1
  11    4   10 ar
  12    5    6 1
  13    5   11 am
  14    6   34 1
  15    6   35 1
  16    7    8 ar
  17    7   36 1
  18    8    9 ar
  19    8   37 1
  20    9   10 ar
  21    9   38 1
  22   10   29 1
  23   11   12 1
  24   11   13 2
  25   12   14 1
  26   14   15 1
  27   14   39 1
  28   14   40 1
  29   15   16 am
  30   15   17 2
  31   16   18 1
  32   16   41 1
  33   18   19 ar
  34   18   23 ar
  35   19   20 ar
  36   19   42 1
  37   20   21 ar
  38   20   43 1
  39   21   22 ar
  40   21   25 1
  41   22   23 ar
  42   22   44 1
  43   23   24 1
  44   25   26 2
  45   25   27 2
  46   25   28 am
  47   28   45 1
  48   28   46 1
  49   29   47 1
  50   29   48 1
  51   29   49 1

#	End of record

