#	Name: ASD07000001
#	Creating user name:	WinNT
#	Creation time:	15. 06. 2019 21:08

#	Modifying user name:	WinNT
#	Modification time:	15. 06. 2019 21:08

#	Program:	/corina/corina34_cracker 3.40 0067  02.08.2006

@<TRIPOS>MOLECULE
ASD07000001
  22   24    0    0    0
SMALL
NO_CHARGES


@<TRIPOS>ATOM
   1 C1            -0.0167     1.3830     0.0096 C.ar    
   2 C2             0.0021    -0.0041     0.0020 C.ar    
   3 C3             1.1528     2.0914     0.0023 C.ar    
   4 C4             1.1972    -0.6925    -0.0127 C.ar    
   5 C5             3.7744     1.8338    -0.0232 C.2     
   6 C6             8.0474    -0.1144    -0.0751 C.2     
   7 C7             8.0589     1.2348    -0.0660 C.2     
   8 C8             5.9801     0.6336    -0.0515 C.2     
   9 C9             4.5094     0.6930    -0.0375 C.2     
  10 C10            2.3724     1.4128    -0.0131 C.ar    
  11 C11            2.3974     0.0061    -0.0204 C.ar    
  12 N12            6.7353    -0.5051    -0.0660 N.pl3   
  13 N13            6.7942     1.6686    -0.0517 N.2     
  14 O14            3.6899    -0.3779    -0.0349 O.3     
  15 H15           -0.9612     1.9068     0.0170 H       
  16 H16           -0.9292    -0.5509     0.0080 H       
  17 H17            1.1329     3.1712     0.0080 H       
  18 H18            1.1995    -1.7725    -0.0178 H       
  19 H19            4.1482     2.8470    -0.0213 H       
  20 H20            8.9103    -0.7635    -0.0912 H       
  21 H21            8.9404     1.8587    -0.0693 H       
  22 H22            6.4046    -1.4170    -0.0696 H       
@<TRIPOS>BOND
   1    1    2 ar
   2    1    3 ar
   3    1   15 1
   4    2    4 ar
   5    2   16 1
   6    3   10 ar
   7    3   17 1
   8    4   11 ar
   9    4   18 1
  10    5    9 2
  11    5   10 1
  12    5   19 1
  13    6    7 2
  14    6   12 1
  15    6   20 1
  16    7   13 1
  17    7   21 1
  18    8    9 1
  19    8   12 1
  20    8   13 2
  21    9   14 1
  22   10   11 ar
  23   11   14 1
  24   12   22 1

#	End of record

