#	Name: ASD00100101
#	Creating user name:	WinNT
#	Creation time:	15. 06. 2019 18:30

#	Modifying user name:	WinNT
#	Modification time:	15. 06. 2019 18:30

#	Program:	/corina/corina34_cracker 3.40 0067  02.08.2006

@<TRIPOS>MOLECULE
ASD00100101
  35   36    0    0    0
SMALL
NO_CHARGES


@<TRIPOS>ATOM
   1 C1            -0.0180     1.4742     0.0101 C.2     
   2 C2             0.0021    -0.0041     0.0020 C.ar    
   3 C3             1.2184    -0.6885    -0.0133 C.ar    
   4 C4             1.2301    -2.0680    -0.0203 C.ar    
   5 C5             0.0396    -2.7730    -0.0127 C.ar    
   6 C6            -1.1695    -2.1007     0.0024 C.ar    
   7 C7            -1.1952    -0.7214     0.0154 C.ar    
   8 O8             1.0263     2.0963     0.0035 O.2     
   9 N9            -1.1942     2.1322     0.0193 N.am    
  10 N10           -1.2127     3.4980     0.0268 N.3     
  11 C11           -2.5912     4.0058     0.0361 C.3     
  12 C12           -2.5714     5.5126     0.0442 C.ar    
  13 C13           -2.3593     6.2106    -1.1361 C.ar    
  14 C14           -2.3416     7.5976    -1.1253 C.ar    
  15 C15           -2.5352     8.2806     0.0601 C.ar    
  16 C16           -2.7458     7.5828     1.2347 C.ar    
  17 C17           -2.7700     6.2001     1.2256 C.ar    
  18 O18           -2.1688     5.5365    -2.3006 O.3     
  19 C19           -1.9563     6.3202    -3.4765 C.3     
  20 H20            2.1484    -0.1393    -0.0199 H       
  21 H21            2.1706    -2.5988    -0.0321 H       
  22 H22            0.0543    -3.8529    -0.0190 H       
  23 H23           -2.0953    -2.6569     0.0083 H       
  24 H24           -2.1396    -0.1978     0.0318 H       
  25 H25           -2.0276     1.6358     0.0206 H       
  26 H26           -0.6879     3.8625     0.8077 H       
  27 H27           -3.1139     3.6540    -0.8533 H       
  28 H28           -3.1055     3.6444     0.9266 H       
  29 H29           -2.1764     8.1431    -2.0426 H       
  30 H30           -2.5215     9.3604     0.0690 H       
  31 H31           -2.8962     8.1185     2.1604 H       
  32 H32           -2.9395     5.6574     2.1438 H       
  33 H33           -1.0671     6.9370    -3.3463 H       
  34 H34           -1.8184     5.6602    -4.3330 H       
  35 H35           -2.8212     6.9611    -3.6473 H       
@<TRIPOS>BOND
   1    1    2 1
   2    1    8 2
   3    1    9 am
   4    2    3 ar
   5    2    7 ar
   6    3    4 ar
   7    3   20 1
   8    4    5 ar
   9    4   21 1
  10    5    6 ar
  11    5   22 1
  12    6    7 ar
  13    6   23 1
  14    7   24 1
  15    9   10 1
  16    9   25 1
  17   10   11 1
  18   10   26 1
  19   11   12 1
  20   11   27 1
  21   11   28 1
  22   12   13 ar
  23   12   17 ar
  24   13   14 ar
  25   13   18 1
  26   14   15 ar
  27   14   29 1
  28   15   16 ar
  29   15   30 1
  30   16   17 ar
  31   16   31 1
  32   17   32 1
  33   18   19 1
  34   19   33 1
  35   19   34 1
  36   19   35 1

#	End of record

