#	Name: ASD04590327
#	Creating user name:	WinNT
#	Creation time:	15. 06. 2019 20:50

#	Modifying user name:	WinNT
#	Modification time:	15. 06. 2019 20:50

#	Program:	/corina/corina34_cracker 3.40 0067  02.08.2006

@<TRIPOS>MOLECULE
ASD04590327
  43   46    0    0    0
SMALL
NO_CHARGES


@<TRIPOS>ATOM
   1 C1            -0.0167     1.3834     0.0096 C.ar    
   2 C2             0.0021    -0.0041     0.0020 C.ar    
   3 C3             1.1863    -0.6848    -0.0125 C.ar    
   4 C4             2.3948     0.0191    -0.0203 C.ar    
   5 C5             2.3756     1.4250    -0.0131 C.ar    
   6 C6             1.1624     2.0987     0.0022 C.ar    
   7 N7             3.6952    -0.3636    -0.0352 N.2     
   8 C8             4.4665     0.6967    -0.0376 C.2     
   9 N9             3.6970     1.8290    -0.0242 N.pl3   
  10 C10            5.9437     0.6731    -0.0524 C.2     
  11 C11            6.7565    -0.4840    -0.0668 C.2     
  12 C12            8.0504    -0.0800    -0.0780 C.2     
  13 N13            8.0626     1.2789    -0.0710 N.pl3   
  14 N14            6.7358     1.7273    -0.0603 N.2     
  15 N15            6.3043    -1.8134    -0.0687 N.am    
  16 C16            7.1922    -2.8272    -0.0832 C.2     
  17 C17            6.7172    -4.2238    -0.0852 C.ar    
  18 O18            8.3851    -2.5907    -0.0946 O.2     
  19 C19            6.0285    -6.1856    -1.2883 C.ar    
  20 C20            5.8231    -6.8493    -0.0901 C.ar    
  21 C21            6.0558    -6.2098     1.1116 C.ar    
  22 C22            6.5029    -4.8973     1.1254 C.ar    
  23 O23            6.7324    -4.2681     2.3051 O.3     
  24 C24            6.4727    -4.8809    -1.2933 C.ar    
  25 C25            6.6938    -4.1640    -2.6003 C.3     
  26 C26            6.4921    -5.0176     3.4977 C.3     
  27 H27           -0.9614     1.9069     0.0170 H       
  28 H28           -0.9290    -0.5513     0.0080 H       
  29 H29            1.1893    -1.7648    -0.0177 H       
  30 H30            1.1417     3.1785     0.0075 H       
  31 H31            4.0192     2.7439    -0.0231 H       
  32 H32            8.9175    -0.7237    -0.0897 H       
  33 H33            8.8531     1.8410    -0.0759 H       
  34 H34            5.3529    -2.0021    -0.0596 H       
  35 H35            5.8437    -6.6941    -2.2230 H       
  36 H36            5.4745    -7.8715    -0.0955 H       
  37 H37            5.8930    -6.7339     2.0418 H       
  38 H38            7.7199    -4.3221    -2.9323 H       
  39 H39            6.0052    -4.5543    -3.3497 H       
  40 H40            6.5162    -3.0972    -2.4642 H       
  41 H41            6.7141    -4.3985     4.3669 H       
  42 H42            5.4470    -5.3259     3.5287 H       
  43 H43            7.1317    -5.9002     3.5073 H       
@<TRIPOS>BOND
   1    1    2 ar
   2    1    6 ar
   3    1   27 1
   4    2    3 ar
   5    2   28 1
   6    3    4 ar
   7    3   29 1
   8    4    5 ar
   9    4    7 1
  10    5    6 ar
  11    5    9 1
  12    6   30 1
  13    7    8 2
  14    8    9 1
  15    8   10 1
  16    9   31 1
  17   10   11 1
  18   10   14 2
  19   11   12 2
  20   11   15 1
  21   12   13 1
  22   12   32 1
  23   13   14 1
  24   13   33 1
  25   15   16 am
  26   15   34 1
  27   16   17 1
  28   16   18 2
  29   17   22 ar
  30   17   24 ar
  31   19   20 ar
  32   19   24 ar
  33   19   35 1
  34   20   21 ar
  35   20   36 1
  36   21   22 ar
  37   21   37 1
  38   22   23 1
  39   23   26 1
  40   24   25 1
  41   25   38 1
  42   25   39 1
  43   25   40 1
  44   26   41 1
  45   26   42 1
  46   26   43 1

#	End of record

