#	Name: ASD01948236
#	Creating user name:	WinNT
#	Creation time:	15. 06. 2019 20:14

#	Modifying user name:	WinNT
#	Modification time:	15. 06. 2019 20:14

#	Program:	/corina/corina34_cracker 3.40 0067  02.08.2006

@<TRIPOS>MOLECULE
ASD01948236
  32   34    0    0    0
SMALL
NO_CHARGES


@<TRIPOS>ATOM
   1 C1            -0.0167     1.3794     0.0096 C.ar    
   2 C2             0.0021    -0.0041     0.0020 C.ar    
   3 C3             1.2073    -0.6821    -0.0131 C.ar    
   4 C4             2.3974     0.0199    -0.0202 C.ar    
   5 C5             2.3836     1.4074    -0.0126 C.ar    
   6 C6             1.1707     2.0877     0.0021 C.ar    
   7 C7             4.0430     2.4173    -2.5174 C.ar    
   8 C8             4.2817     2.5440    -1.1552 C.ar    
   9 N9             3.5899     2.1220    -0.0198 N.am    
  10 C10            4.9360     2.9567    -3.4275 C.ar    
  11 C11            6.0677     3.6229    -2.9844 C.ar    
  12 C12            6.3130     3.7535    -1.6272 C.ar    
  13 C13            5.4201     3.2141    -0.7079 C.ar    
  14 N14            5.3867     3.1791     0.6872 N.am    
  15 C15            4.2773     2.5180     1.0679 C.2     
  16 O16            3.9460     2.3103     2.2204 O.2     
  17 I17           -1.7991    -1.0739     0.0141 I       
  18 F18            4.7036     2.8329    -4.7526 F       
  19 F19            1.1528     3.4386     0.0091 F       
  20 F20            2.9439     1.7640    -2.9538 F       
  21 N21            7.0172     4.1966    -3.9644 N.pl3   
  22 O22            6.8700     5.3399    -4.3577 O.2     
  23 O23            7.9458     3.5253    -4.3775 O.2     
  24 O24            7.4247     4.4074    -1.1951 O.3     
  25 C25            7.3060     5.8147    -0.9771 C.3     
  26 H26           -0.9594     1.9063     0.0169 H       
  27 H27            1.2183    -1.7620    -0.0190 H       
  28 H28            3.3379    -0.5110    -0.0313 H       
  29 H29            6.0496     3.5651     1.2809 H       
  30 H30            6.5435     6.0022    -0.2212 H       
  31 H31            8.2620     6.2113    -0.6352 H       
  32 H32            7.0220     6.3040    -1.9088 H       
@<TRIPOS>BOND
   1    1    2 ar
   2    1    6 ar
   3    1   26 1
   4    2    3 ar
   5    2   17 1
   6    3    4 ar
   7    3   27 1
   8    4    5 ar
   9    4   28 1
  10    5    6 ar
  11    5    9 1
  12    6   19 1
  13    7    8 ar
  14    7   10 ar
  15    7   20 1
  16    8    9 1
  17    8   13 ar
  18    9   15 am
  19   10   11 ar
  20   10   18 1
  21   11   12 ar
  22   11   21 1
  23   12   13 ar
  24   12   24 1
  25   13   14 1
  26   14   15 am
  27   14   29 1
  28   15   16 2
  29   21   22 2
  30   21   23 2
  31   24   25 1
  32   25   30 1
  33   25   31 1
  34   25   32 1

#	End of record

