#	Name: ASD01028638
#	Creating user name:	WinNT
#	Creation time:	15. 06. 2019 18:57

#	Modifying user name:	WinNT
#	Modification time:	15. 06. 2019 18:57

#	Program:	/corina/corina34_cracker 3.40 0067  02.08.2006

@<TRIPOS>MOLECULE
ASD01028638
  49   53    0    0    0
SMALL
NO_CHARGES


@<TRIPOS>ATOM
   1 C1            -0.0164     1.3601     0.0095 C.2     
   2 N2             0.0021    -0.0041     0.0020 N.pl3   
   3 C3             1.1466     2.0646     0.0022 C.2     
   4 C4             2.3876     1.3864    -0.0138 C.2     
   5 C5             2.4109     0.0267    -0.0214 C.2     
   6 C6             1.1932    -0.6860    -0.0131 C.2     
   7 N7             0.8965    -1.9758    -0.0170 N.2     
   8 N8            -0.3818    -2.1222    -0.0050 N.2     
   9 C9            -0.9717    -0.9543     0.0062 C.2     
  10 C10           -3.7527    -0.5249    -2.0854 C.ar    
  11 C11           -3.0824    -1.3190    -1.2054 C.ar    
  12 C12           -2.9657    -2.6897    -1.4253 C.ar    
  13 C13           -3.5167    -3.2744    -2.5240 C.ar    
  14 C14           -4.2166    -2.4883    -3.4557 C.ar    
  15 C15           -4.3344    -1.0941    -3.2298 C.ar    
  16 N16           -4.7674    -3.0365    -4.5437 N.ar    
  17 C17           -5.4209    -2.3110    -5.4173 C.ar    
  18 C18           -5.5751    -0.9303    -5.2565 C.ar    
  19 C19           -5.0349    -0.3073    -4.1624 C.ar    
  20 C20            1.1137     3.5498     0.0105 C.2     
  21 C21           -2.4581    -0.7069     0.0221 C.3     
  22 F22            3.5885    -0.6352    -0.0362 F       
  23 C23           -3.0674    -1.3410     1.2742 C.3     
  24 O24           -6.2598    -0.2087    -6.1826 O.3     
  25 C25           -6.7960    -0.9253    -7.2966 C.3     
  26 C26            1.5702     4.3603     1.0079 C.2     
  27 N27            1.3570     5.6366     0.6264 N.pl3   
  28 N28            0.7541     5.6202    -0.6371 N.2     
  29 C29            0.6109     4.3765    -1.0125 C.2     
  30 C30            1.6969     6.8329     1.4007 C.3     
  31 H31           -0.9609     1.8839     0.0168 H       
  32 H32            3.3117     1.9453    -0.0203 H       
  33 H33           -3.8403     0.5357    -1.9019 H       
  34 H34           -2.4290    -3.2983    -0.7126 H       
  35 H35           -3.4162    -4.3384    -2.6796 H       
  36 H36           -5.8511    -2.7913    -6.2836 H       
  37 H37           -5.1433     0.7577    -4.0201 H       
  38 H38           -2.6478     0.3664     0.0294 H       
  39 H39           -4.1425    -1.1621     1.2856 H       
  40 H40           -2.8777    -2.4144     1.2668 H       
  41 H41           -2.6159    -0.8983     2.1620 H       
  42 H42           -7.4949    -1.6818    -6.9396 H       
  43 H43           -7.3169    -0.2325    -7.9575 H       
  44 H44           -5.9854    -1.4081    -7.8423 H       
  45 H45            2.0206     4.0386     1.9353 H       
  46 H46            0.1767     4.0411    -1.9427 H       
  47 H47            2.7086     7.1523     1.1506 H       
  48 H48            0.9944     7.6315     1.1626 H       
  49 H49            1.6406     6.6049     2.4651 H       
@<TRIPOS>BOND
   1    1    2 1
   2    1    3 2
   3    1   31 1
   4    2    6 1
   5    2    9 1
   6    3    4 1
   7    3   20 1
   8    4    5 2
   9    4   32 1
  10    5    6 1
  11    5   22 1
  12    6    7 2
  13    7    8 1
  14    8    9 2
  15    9   21 1
  16   10   11 ar
  17   10   15 ar
  18   10   33 1
  19   11   12 ar
  20   11   21 1
  21   12   13 ar
  22   12   34 1
  23   13   14 ar
  24   13   35 1
  25   14   15 ar
  26   14   16 ar
  27   15   19 ar
  28   16   17 ar
  29   17   18 ar
  30   17   36 1
  31   18   19 ar
  32   18   24 1
  33   19   37 1
  34   20   26 2
  35   20   29 1
  36   21   23 1
  37   21   38 1
  38   23   39 1
  39   23   40 1
  40   23   41 1
  41   24   25 1
  42   25   42 1
  43   25   43 1
  44   25   44 1
  45   26   27 1
  46   26   45 1
  47   27   28 1
  48   27   30 1
  49   28   29 2
  50   29   46 1
  51   30   47 1
  52   30   48 1
  53   30   49 1

#	End of record

