#	Name: ASD02039265
#	Creating user name:	WinNT
#	Creation time:	15. 06. 2019 20:18

#	Modifying user name:	WinNT
#	Modification time:	15. 06. 2019 20:18

#	Program:	/corina/corina34_cracker 3.40 0067  02.08.2006

@<TRIPOS>MOLECULE
ASD02039265
  48   51    0    0    0
SMALL
NO_CHARGES


@<TRIPOS>ATOM
   1 N1             0.0022     1.2683     0.3698 N.2     
   2 C2             0.0063    -0.0134     0.0883 C.2     
   3 N3             1.3072    -0.3752    -0.1106 N.pl3   
   4 C4             2.0407     0.7639     0.0719 C.2     
   5 N5             1.2048     1.7216     0.3587 N.2     
   6 N6            -1.1014    -0.8434     0.0087 N.pl3   
   7 C7            -2.3885    -0.3063     0.1299 C.ar    
   8 C8            -2.6361     1.0012    -0.2675 C.ar    
   9 C9            -3.9061     1.5301    -0.1476 C.ar    
  10 C10           -4.9343     0.7559     0.3695 C.ar    
  11 C11           -4.6879    -0.5501     0.7670 C.ar    
  12 C12           -3.4199    -1.0826     0.6421 C.ar    
  13 C13            3.5385     0.8889    -0.0383 C.3     
  14 N14            3.9003     1.2242    -1.4178 N.pl3   
  15 C15            5.2442     1.3929    -1.7670 C.ar    
  16 C16            5.5823     1.7092    -3.0694 C.ar    
  17 C17            6.2366     1.2468    -0.7986 C.ar    
  18 C18            7.5646     1.4098    -1.1250 C.ar    
  19 C19            7.9263     1.7231    -2.4310 C.ar    
  20 C20            6.9278     1.8768    -3.4115 C.ar    
  21 N21            9.2522     1.8898    -2.7772 N.am    
  22 C22            9.6049     2.1922    -4.0387 C.2     
  23 C23            8.6429     2.3517    -5.0588 C.2     
  24 C24            7.3235     2.2061    -4.7822 C.2     
  25 O25           10.7854     2.3325    -4.3082 O.2     
  26 C26            1.8128    -1.7080    -0.4490 C.3     
  27 O27           -6.1847     1.2775     0.4872 O.3     
  28 C28           -7.1954     0.4242     1.0277 C.3     
  29 F29           -7.3347    -0.7063     0.2154 F       
  30 F30           -6.8301     0.0285     2.3189 F       
  31 H31           -0.9845    -1.7961    -0.1309 H       
  32 H32           -1.8355     1.6042    -0.6698 H       
  33 H33           -4.0987     2.5470    -0.4562 H       
  34 H34           -5.4889    -1.1519     1.1702 H       
  35 H35           -3.2282    -2.0995     0.9513 H       
  36 H36            3.8876     1.6758     0.6304 H       
  37 H37            4.0035    -0.0569     0.2396 H       
  38 H38            3.2080     1.3292    -2.0890 H       
  39 H39            4.8125     1.8258    -3.8179 H       
  40 H40            5.9613     1.0040     0.2171 H       
  41 H41            8.3251     1.2948    -0.3669 H       
  42 H42            9.9394     1.7876    -2.1002 H       
  43 H43            8.9585     2.5947    -6.0627 H       
  44 H44            6.5808     2.3266    -5.5570 H       
  45 H45            1.8466    -1.8194    -1.5327 H       
  46 H46            2.8155    -1.8309    -0.0396 H       
  47 H47            1.1524    -2.4652    -0.0263 H       
  48 H48           -8.1425     0.9623     1.0669 H       
@<TRIPOS>BOND
   1    1    2 2
   2    1    5 1
   3    2    3 1
   4    2    6 1
   5    3    4 1
   6    3   26 1
   7    4    5 2
   8    4   13 1
   9    6    7 1
  10    6   31 1
  11    7    8 ar
  12    7   12 ar
  13    8    9 ar
  14    8   32 1
  15    9   10 ar
  16    9   33 1
  17   10   11 ar
  18   10   27 1
  19   11   12 ar
  20   11   34 1
  21   12   35 1
  22   13   14 1
  23   13   36 1
  24   13   37 1
  25   14   15 1
  26   14   38 1
  27   15   16 ar
  28   15   17 ar
  29   16   20 ar
  30   16   39 1
  31   17   18 ar
  32   17   40 1
  33   18   19 ar
  34   18   41 1
  35   19   20 ar
  36   19   21 1
  37   20   24 1
  38   21   22 am
  39   21   42 1
  40   22   23 1
  41   22   25 2
  42   23   24 2
  43   23   43 1
  44   24   44 1
  45   26   45 1
  46   26   46 1
  47   26   47 1
  48   27   28 1
  49   28   29 1
  50   28   30 1
  51   28   48 1

#	End of record

