#	Name: ASD01940378
#	Creating user name:	WinNT
#	Creation time:	15. 06. 2019 20:12

#	Modifying user name:	WinNT
#	Modification time:	15. 06. 2019 20:12

#	Program:	/corina/corina34_cracker 3.40 0067  02.08.2006

@<TRIPOS>MOLECULE
ASD01940378
  20   18    0    0    0
SMALL
NO_CHARGES


@<TRIPOS>ATOM
   1 C1            -0.0187     1.5258     0.0104 C.3     
   2 C2             0.0021    -0.0041     0.0020 C.3     
   3 C3             0.7182    -0.4975    -1.2568 C.3     
   4 O4             1.3220     2.0204     0.0003 O.3     
   5 C5             0.7421    -0.5109     1.2415 C.3     
   6 O6            -1.3386    -0.4987     0.0122 O.3     
   7 N7            -1.4343    -1.9585     0.0052 N.3     
   8 H8            -0.5459     1.8868    -0.8726 H       
   9 H9            -0.5289     1.8773     0.9072 H       
  10 H10            1.7408    -0.1202    -1.2645 H       
  11 H11            0.7330    -1.5874    -1.2628 H       
  12 H12            0.1910    -0.1364    -2.1398 H       
  13 H13            1.3852     2.9853     0.0049 H       
  14 H14            0.2319    -0.1594     2.1383 H       
  15 H15            0.7568    -1.6008     1.2356 H       
  16 H16            1.7647    -0.1336     1.2338 H       
  17 H17           -0.9255    -2.3579     0.7796 H       
  18 H18           -2.3979    -2.2578     0.0128 H       
  19 Cl19           6.7647     7.9853     7.1383 Cl      
  20 H20            6.7647     9.3553     7.1383 H       
@<TRIPOS>BOND
   1    1    2 1
   2    1    4 1
   3    1    8 1
   4    1    9 1
   5    2    3 1
   6    2    5 1
   7    2    6 1
   8    3   10 1
   9    3   11 1
  10    3   12 1
  11    4   13 1
  12    5   14 1
  13    5   15 1
  14    5   16 1
  15    6    7 1
  16    7   17 1
  17    7   18 1
  18   19   20 1

#	End of record

