#	Name: ASD01811439
#	Creating user name:	WinNT
#	Creation time:	15. 06. 2019 19:26

#	Modifying user name:	WinNT
#	Modification time:	15. 06. 2019 19:26

#	Program:	/corina/corina34_cracker 3.40 0067  02.08.2006

@<TRIPOS>MOLECULE
ASD01811439
  50   54    0    0    0
SMALL
NO_CHARGES


@<TRIPOS>ATOM
   1 C1            -0.0187     1.5296     0.0105 C.3     
   2 C2             0.0021    -0.0041     0.0020 C.3     
   3 C3             0.9347    -0.5140     1.1029 C.3     
   4 C4             2.3930    -0.2405     0.7147 C.3     
   5 C5             1.4081     2.0202    -0.0005 C.2     
   6 C6            -1.3910    -0.5256     0.2438 C.ar    
   7 C7            -2.0039    -1.3230    -0.7042 C.ar    
   8 C8            -3.2839    -1.8028    -0.4831 C.ar    
   9 C9            -3.9495    -1.4836     0.6878 C.ar    
  10 C10           -3.3347    -0.6849     1.6365 C.ar    
  11 C11           -2.0524    -0.2108     1.4158 C.ar    
  12 C12            1.8656     3.2494    -0.3013 C.2     
  13 C13            2.5115     1.2115     0.3193 C.2     
  14 N14            3.5894     1.9322     0.2107 N.2     
  15 N15            3.2120     3.2259    -0.1801 N.pl3   
  16 C16           -5.3428    -2.0047     0.9293 C.3     
  17 N17           -5.2686    -3.2982     1.6131 N.am    
  18 C18           -5.2601    -3.3296     2.9686 C.2     
  19 C19           -5.0212    -4.6429     3.5876 C.2     
  20 C20           -4.2723    -5.5674     1.4130 C.3     
  21 C21           -5.2118    -4.5196     0.8188 C.3     
  22 C22           -5.1822    -5.0860     4.8693 C.2     
  23 C23           -4.7872    -6.4304     4.8409 C.2     
  24 N24           -4.4266    -6.7205     3.6125 N.2     
  25 N25           -4.5483    -5.7059     2.8496 N.pl3   
  26 C26            4.1177     4.3530    -0.4160 C.3     
  27 O27           -5.4395    -2.3283     3.6354 O.2     
  28 F28           -3.9833    -0.3721     2.7796 F       
  29 F29           -3.8830    -2.5819    -1.4101 F       
  30 H30           -0.5401     1.8952    -0.8742 H       
  31 H31           -0.5231     1.8857     0.9087 H       
  32 H32            0.3574    -0.3565    -0.9663 H       
  33 H33            0.7062    -0.0018     2.0375 H       
  34 H34            0.7893    -1.5864     1.2332 H       
  35 H35            3.0443    -0.4444     1.5646 H       
  36 H36            2.6750    -0.8746    -0.1259 H       
  37 H37           -1.4845    -1.5717    -1.6178 H       
  38 H38           -1.5706     0.4084     2.1579 H       
  39 H39            1.2659     4.1006    -0.5881 H       
  40 H40           -5.8930    -1.2970     1.5494 H       
  41 H41           -5.8555    -2.1270    -0.0248 H       
  42 H42           -4.4336    -6.5242     0.9165 H       
  43 H43           -3.2387    -5.2523     1.2703 H       
  44 H44           -6.2142    -4.9426     0.7533 H       
  45 H45           -4.8708    -4.2710    -0.1862 H       
  46 H46           -5.5363    -4.5226     5.7200 H       
  47 H47           -4.7805    -7.1083     5.6817 H       
  48 H48            4.2582     4.9067     0.5123 H       
  49 H49            5.0801     3.9788    -0.7651 H       
  50 H50            3.6887     5.0120    -1.1708 H       
@<TRIPOS>BOND
   1    1    2 1
   2    1    5 1
   3    1   30 1
   4    1   31 1
   5    2    3 1
   6    2    6 1
   7    2   32 1
   8    3    4 1
   9    3   33 1
  10    3   34 1
  11    4   13 1
  12    4   35 1
  13    4   36 1
  14    5   13 1
  15    5   12 2
  16    6    7 ar
  17    6   11 ar
  18    7    8 ar
  19    7   37 1
  20    8    9 ar
  21    8   29 1
  22    9   10 ar
  23    9   16 1
  24   10   11 ar
  25   10   28 1
  26   11   38 1
  27   12   15 1
  28   12   39 1
  29   13   14 2
  30   14   15 1
  31   15   26 1
  32   16   17 1
  33   16   40 1
  34   16   41 1
  35   17   18 am
  36   17   21 1
  37   18   19 1
  38   18   27 2
  39   19   22 2
  40   19   25 1
  41   20   21 1
  42   20   25 1
  43   20   42 1
  44   20   43 1
  45   21   44 1
  46   21   45 1
  47   22   23 1
  48   22   46 1
  49   23   24 2
  50   23   47 1
  51   24   25 1
  52   26   48 1
  53   26   49 1
  54   26   50 1

#	End of record

