#	Name: ASD01152507
#	Creating user name:	WinNT
#	Creation time:	15. 06. 2019 19:06

#	Modifying user name:	WinNT
#	Modification time:	15. 06. 2019 19:06

#	Program:	/corina/corina34_cracker 3.40 0067  02.08.2006

@<TRIPOS>MOLECULE
ASD01152507
  48   51    0    0    0
SMALL
NO_CHARGES


@<TRIPOS>ATOM
   1 C1            -0.3500     1.3556    -0.0017 C.2     
   2 N2            -0.3386     0.0564    -0.1371 N.2     
   3 N3            -1.3668    -0.7401     0.3665 N.am    
   4 C4            -2.5198    -0.2264     0.8263 C.2     
   5 C5            -2.7983     1.2530     0.7015 C.3     
   6 C6            -1.4653     1.9778     0.7282 C.2     
   7 C7            -3.5205     1.5349    -0.6175 C.3     
   8 O8            -1.3288     3.0284     1.3206 O.2     
   9 C9            -1.1908    -2.1281     0.3935 C.ar    
  10 O10           -3.3408    -0.9537     1.3434 O.2     
  11 C11           -3.9036     2.9910    -0.6793 C.ar    
  12 C12           -2.1830    -2.9638    -0.0989 C.ar    
  13 C13           -0.0196    -2.6709     0.9084 C.ar    
  14 C14            0.1550    -4.0408     0.9349 C.ar    
  15 C15           -0.8335    -4.8759     0.4500 C.ar    
  16 C16           -2.0045    -4.3396    -0.0703 C.ar    
  17 C17           -3.0231     3.9107    -1.2306 C.ar    
  18 C18           -3.3537     5.2351    -1.2955 C.ar    
  19 C19           -4.5870     5.6673    -0.8033 C.ar    
  20 C20           -5.4812     4.7390    -0.2443 C.ar    
  21 C21           -5.1279     3.3963    -0.1927 C.ar    
  22 C22           -5.2417     6.9759    -0.7177 C.2     
  23 N23           -6.3993     6.7952    -0.1603 N.2     
  24 O24           -6.5750     5.4258     0.1427 O.3     
  25 O25            0.6503     2.1157    -0.5193 O.3     
  26 C26            1.6972     1.4289    -1.2079 C.3     
  27 N27           -3.0026    -5.1858    -0.5659 N.am    
  28 C28           -3.2337    -6.3743     0.0262 C.2     
  29 O29           -2.5218    -6.7480     0.9343 O.2     
  30 C30           -4.3766    -7.2389    -0.4400 C.3     
  31 H31           -3.4134     1.5846     1.5381 H       
  32 H32           -2.8599     1.2973    -1.4514 H       
  33 H33           -4.4184     0.9200    -0.6787 H       
  34 H34           -3.0924    -2.5444    -0.5033 H       
  35 H35            0.7550    -2.0209     1.2878 H       
  36 H36            1.0662    -4.4601     1.3352 H       
  37 H37           -0.6937    -5.9466     0.4719 H       
  38 H38           -2.0689     3.5774    -1.6112 H       
  39 H39           -2.6631     5.9454    -1.7257 H       
  40 H40           -5.8071     2.6735     0.2347 H       
  41 H41           -4.8351     7.9175    -1.0561 H       
  42 H42            2.1829     0.7302    -0.5266 H       
  43 H43            1.2785     0.8813    -2.0523 H       
  44 H44            2.4288     2.1511    -1.5700 H       
  45 H45           -3.5282    -4.9170    -1.3355 H       
  46 H46           -4.8986    -6.7413    -1.2573 H       
  47 H47           -3.9895    -8.1972    -0.7862 H       
  48 H48           -5.0683    -7.4034     0.3862 H       
@<TRIPOS>BOND
   1    1    2 2
   2    1   25 1
   3    1    6 1
   4    2    3 1
   5    3    4 am
   6    3    9 1
   7    4    5 1
   8    4   10 2
   9    5    6 1
  10    5    7 1
  11    5   31 1
  12    6    8 2
  13    7   11 1
  14    7   32 1
  15    7   33 1
  16    9   12 ar
  17    9   13 ar
  18   11   17 ar
  19   11   21 ar
  20   12   16 ar
  21   12   34 1
  22   13   14 ar
  23   13   35 1
  24   14   15 ar
  25   14   36 1
  26   15   16 ar
  27   15   37 1
  28   16   27 1
  29   17   18 ar
  30   17   38 1
  31   18   19 ar
  32   18   39 1
  33   19   20 ar
  34   19   22 1
  35   20   21 ar
  36   20   24 1
  37   21   40 1
  38   22   23 2
  39   22   41 1
  40   23   24 1
  41   25   26 1
  42   26   42 1
  43   26   43 1
  44   26   44 1
  45   27   28 am
  46   27   45 1
  47   28   29 2
  48   28   30 1
  49   30   46 1
  50   30   47 1
  51   30   48 1

#	End of record

