#	Name: ASD01917798
#	Creating user name:	WinNT
#	Creation time:	15. 06. 2019 20:10

#	Modifying user name:	WinNT
#	Modification time:	15. 06. 2019 20:10

#	Program:	/corina/corina34_cracker 3.40 0067  02.08.2006

@<TRIPOS>MOLECULE
ASD01917798
  44   47    0    0    0
SMALL
NO_CHARGES


@<TRIPOS>ATOM
   1 C1            -0.0137     1.3189    -0.0044 C.2     
   2 C2            -0.0103    -0.0280     0.0048 C.2     
   3 C3            -1.2498    -0.8860     0.0243 C.3     
   4 C4            -2.4379    -0.0295     0.4797 C.3     
   5 N5            -2.4044     1.2579    -0.2303 N.am    
   6 C6            -1.2652     2.1613     0.0137 C.3     
   7 C7            -3.3897     1.6029    -1.0828 C.2     
   8 O8            -4.2642     0.8042    -1.3562 O.2     
   9 C9            -3.4069     2.9532    -1.6853 C.ar    
  10 O10            1.2629     1.7239    -0.0259 O.3     
  11 C11            2.0355     0.6261    -0.0261 C.2     
  12 N12            1.2679    -0.4291    -0.0072 N.2     
  13 C13            3.5423     0.6142    -0.0456 C.3     
  14 O14            4.0011     0.5991    -1.3989 O.3     
  15 C15            5.3459     0.5870    -1.5943 C.ar    
  16 C16            5.8607     0.5720    -2.8825 C.ar    
  17 C17            7.2282     0.5596    -3.0785 C.ar    
  18 C18            8.0835     0.5622    -1.9922 C.ar    
  19 C19            7.5729     0.5767    -0.7073 C.ar    
  20 C20            6.2063     0.5953    -0.5060 C.ar    
  21 C21           -3.8632     3.1294    -2.9894 C.ar    
  22 C22           -3.8766     4.4051    -3.5512 C.ar    
  23 C23           -3.4329     5.4988    -2.8042 C.ar    
  24 C24           -2.9805     5.3174    -1.5098 C.ar    
  25 C25           -2.9709     4.0549    -0.9457 C.ar    
  26 F26           -2.5519     6.3785    -0.7918 F       
  27 C27           -4.3440     4.5939    -4.8916 C.1     
  28 N28           -4.7147     4.7437    -5.9549 N.1     
  29 H29           -1.4414    -1.2737    -0.9763 H       
  30 H30           -1.1096    -1.7146     0.7184 H       
  31 H31           -3.3693    -0.5476     0.2511 H       
  32 H32           -2.3709     0.1448     1.5536 H       
  33 H33           -1.3745     2.6418     0.9860 H       
  34 H34           -1.2159     2.9164    -0.7708 H       
  35 H35            3.9192     1.5056     0.4559 H       
  36 H36            3.9054    -0.2742     0.4711 H       
  37 H37            5.1930     0.5696    -3.7313 H       
  38 H38            7.6294     0.5476    -4.0811 H       
  39 H39            9.1522     0.5526    -2.1475 H       
  40 H40            8.2431     0.5780     0.1396 H       
  41 H41            5.8080     0.6067     0.4978 H       
  42 H42           -4.2051     2.2808    -3.5634 H       
  43 H43           -3.4427     6.4877    -3.2382 H       
  44 H44           -2.6169     3.9191     0.0656 H       
@<TRIPOS>BOND
   1    1    2 2
   2    1   10 1
   3    1    6 1
   4    2    3 1
   5    2   12 1
   6    3    4 1
   7    3   29 1
   8    3   30 1
   9    4    5 1
  10    4   31 1
  11    4   32 1
  12    5    6 1
  13    5    7 am
  14    6   33 1
  15    6   34 1
  16    7    8 2
  17    7    9 1
  18    9   21 ar
  19    9   25 ar
  20   10   11 1
  21   11   12 2
  22   11   13 1
  23   13   14 1
  24   13   35 1
  25   13   36 1
  26   14   15 1
  27   15   16 ar
  28   15   20 ar
  29   16   17 ar
  30   16   37 1
  31   17   18 ar
  32   17   38 1
  33   18   19 ar
  34   18   39 1
  35   19   20 ar
  36   19   40 1
  37   20   41 1
  38   21   22 ar
  39   21   42 1
  40   22   27 1
  41   22   23 ar
  42   23   24 ar
  43   23   43 1
  44   24   25 ar
  45   24   26 1
  46   25   44 1
  47   27   28 3

#	End of record

