#	Name: ASD02030295
#	Creating user name:	WinNT
#	Creation time:	15. 06. 2019 20:15

#	Modifying user name:	WinNT
#	Modification time:	15. 06. 2019 20:15

#	Program:	/corina/corina34_cracker 3.40 0067  02.08.2006

@<TRIPOS>MOLECULE
ASD02030295
  59   62    0    0    0
SMALL
NO_CHARGES


@<TRIPOS>ATOM
   1 N1            -0.3629     1.4630    -0.3801 N.am    
   2 C2            -0.3771    -0.0060    -0.3390 C.3     
   3 C3            -1.1622    -0.4540     0.9001 C.3     
   4 N4            -2.4419     0.2678     0.9315 N.am    
   5 C5            -2.4277     1.7368     0.8904 C.3     
   6 C6            -1.6424     2.1850    -0.3430 C.3     
   7 C7             0.8029     2.1362    -0.4449 C.2     
   8 C8             2.0847     1.4049    -0.3556 C.2     
   9 N9             3.2817     1.9468    -0.2901 N.2     
  10 N10            2.2322     0.0678    -0.3211 N.2     
  11 C11            3.5147    -0.1800    -0.2407 C.2     
  12 N12            4.1585     1.0051    -0.2221 N.pl3   
  13 C13            5.5464     1.1823    -0.1423 C.ar    
  14 O14            0.8005     3.3446    -0.5769 O.2     
  15 C15           -3.6077    -0.4053     0.9964 C.2     
  16 C16           -3.6123    -1.8829     0.9417 C.ar    
  17 O17           -4.6554     0.2023     1.0998 O.2     
  18 C18            6.0846     2.4617    -0.1317 C.ar    
  19 C19            7.4542     2.6331    -0.0529 C.ar    
  20 C20            8.2876     1.5305     0.0147 C.ar    
  21 C21            7.7533     0.2551     0.0037 C.ar    
  22 C22            6.3856     0.0782    -0.0681 C.ar    
  23 C23           -1.3820     3.6908    -0.2667 C.3     
  24 C24           -2.7182    -2.6156     1.7245 C.ar    
  25 Cl25           8.1290     4.2325    -0.0395 Cl      
  26 C26           -4.5138    -2.5499     0.1122 C.ar    
  27 C27           -4.5122    -3.9340     0.0663 C.ar    
  28 C28           -3.6156    -4.6539     0.8439 C.ar    
  29 C29           -2.7251    -3.9942     1.6710 C.ar    
  30 C30           -6.3858    -6.5698    -1.6992 C.3     
  31 C31           -5.3321    -6.0157    -0.7381 C.3     
  32 O32           -5.3892    -4.5879    -0.7403 O.3     
  33 C33           -6.3246    -8.0985    -1.6969 C.3     
  34 H34           -0.8591    -0.3924    -1.2370 H       
  35 H35            0.6449    -0.3802    -0.2795 H       
  36 H36           -1.3484    -1.5267     0.8470 H       
  37 H37           -0.5900    -0.2236     1.7988 H       
  38 H38           -3.4497     2.1110     0.8309 H       
  39 H39           -1.9457     2.1233     1.7884 H       
  40 H40           -2.2124     1.9549    -1.2431 H       
  41 H41            3.9741    -1.1564    -0.1942 H       
  42 H42            5.4343     3.3223    -0.1851 H       
  43 H43            9.3573     1.6663     0.0758 H       
  44 H44            8.4062    -0.6036     0.0558 H       
  45 H45            5.9693    -0.9184    -0.0763 H       
  46 H46           -0.7180     3.9027     0.5713 H       
  47 H47           -0.9162     4.0263    -1.1933 H       
  48 H48           -2.3264     4.2160    -0.1238 H       
  49 H49           -2.0212    -2.1035     2.3713 H       
  50 H50           -5.2111    -1.9886    -0.4920 H       
  51 H51           -3.6167    -5.7333     0.8064 H       
  52 H52           -2.0297    -4.5597     2.2734 H       
  53 H53           -7.3759    -6.2453    -1.3791 H       
  54 H54           -6.1899    -6.1998    -2.7056 H       
  55 H55           -5.5280    -6.3857     0.2683 H       
  56 H56           -4.3420    -6.3402    -1.0582 H       
  57 H57           -7.0753    -8.4932    -2.3816 H       
  58 H58           -5.3345    -8.4230    -2.0169 H       
  59 H59           -6.5205    -8.4685    -0.6904 H       
@<TRIPOS>BOND
   1    1    2 1
   2    1    7 am
   3    1    6 1
   4    2    3 1
   5    2   34 1
   6    2   35 1
   7    3    4 1
   8    3   36 1
   9    3   37 1
  10    4    5 1
  11    4   15 am
  12    5    6 1
  13    5   38 1
  14    5   39 1
  15    6   23 1
  16    6   40 1
  17    7    8 1
  18    7   14 2
  19    8    9 2
  20    8   10 1
  21    9   12 1
  22   10   11 2
  23   11   12 1
  24   11   41 1
  25   12   13 1
  26   13   18 ar
  27   13   22 ar
  28   15   16 1
  29   15   17 2
  30   16   26 ar
  31   16   24 ar
  32   18   19 ar
  33   18   42 1
  34   19   20 ar
  35   19   25 1
  36   20   21 ar
  37   20   43 1
  38   21   22 ar
  39   21   44 1
  40   22   45 1
  41   23   46 1
  42   23   47 1
  43   23   48 1
  44   24   29 ar
  45   24   49 1
  46   26   27 ar
  47   26   50 1
  48   27   28 ar
  49   27   32 1
  50   28   29 ar
  51   28   51 1
  52   29   52 1
  53   30   31 1
  54   30   33 1
  55   30   53 1
  56   30   54 1
  57   31   32 1
  58   31   55 1
  59   31   56 1
  60   33   57 1
  61   33   58 1
  62   33   59 1

#	End of record

