#	Name: ASD01915232
#	Creating user name:	WinNT
#	Creation time:	15. 06. 2019 20:05

#	Modifying user name:	WinNT
#	Modification time:	15. 06. 2019 20:05

#	Program:	/corina/corina34_cracker 3.40 0067  02.08.2006

@<TRIPOS>MOLECULE
ASD01915232
  31   32    0    0    0
SMALL
NO_CHARGES


@<TRIPOS>ATOM
   1 C1            -0.0077     1.3433    -0.1951 C.ar    
   2 C2             0.0217    -0.0350     0.0277 C.ar    
   3 C3            -1.1556    -0.7609     0.0442 C.ar    
   4 C4            -2.3676    -0.1273    -0.1595 C.ar    
   5 C5            -2.4091     1.2513    -0.3828 C.ar    
   6 C6            -1.2265     1.9883    -0.3953 C.ar    
   7 F7            -1.1211    -2.0941     0.2597 F       
   8 C8             1.2516     2.1176    -0.2124 C.2     
   9 N9             2.4293     1.4934    -0.0131 N.am    
  10 O10            1.2247     3.3174    -0.4064 O.2     
  11 C11            3.6268     2.2068    -0.1263 C.ar    
  12 C12            3.6886     3.5304     0.2861 C.ar    
  13 C13            4.8773     4.2343     0.1723 C.ar    
  14 C14            6.0021     3.6144    -0.3533 C.ar    
  15 C15            5.9387     2.2962    -0.7640 C.ar    
  16 C16            4.7577     1.5896    -0.6465 C.ar    
  17 O17            4.9411     5.5307     0.5748 O.3     
  18 C18            6.1981     6.1944     0.4283 C.3     
  19 C19           -3.6649     1.9064    -0.5936 C.1     
  20 N20           -4.6612     2.4261    -0.7609 N.1     
  21 H21            0.9656    -0.5352     0.1870 H       
  22 H22           -3.2837    -0.6991    -0.1462 H       
  23 H23           -1.2538     3.0542    -0.5672 H       
  24 H24            2.4464     0.5493     0.2088 H       
  25 H25            2.8121     4.0113     0.6947 H       
  26 H26            6.9283     4.1629    -0.4420 H       
  27 H27            6.8155     1.8163    -1.1731 H       
  28 H28            4.7108     0.5597    -0.9682 H       
  29 H29            6.1112     7.2203     0.7864 H       
  30 H30            6.9560     5.6696     1.0099 H       
  31 H31            6.4858     6.1997    -0.6230 H       
@<TRIPOS>BOND
   1    1    2 ar
   2    1    8 1
   3    1    6 ar
   4    2    3 ar
   5    2   21 1
   6    3    4 ar
   7    3    7 1
   8    4    5 ar
   9    4   22 1
  10    5    6 ar
  11    5   19 1
  12    6   23 1
  13    8    9 am
  14    8   10 2
  15    9   11 1
  16    9   24 1
  17   11   12 ar
  18   11   16 ar
  19   12   13 ar
  20   12   25 1
  21   13   14 ar
  22   13   17 1
  23   14   15 ar
  24   14   26 1
  25   15   16 ar
  26   15   27 1
  27   16   28 1
  28   17   18 1
  29   18   29 1
  30   18   30 1
  31   18   31 1
  32   19   20 3

#	End of record

