#	Name: ASD08150458
#	Creating user name:	WinNT
#	Creation time:	15. 06. 2019 21:16

#	Modifying user name:	WinNT
#	Modification time:	15. 06. 2019 21:16

#	Program:	/corina/corina34_cracker 3.40 0067  02.08.2006

@<TRIPOS>MOLECULE
ASD08150458
  62   67    0    0    0
SMALL
NO_CHARGES


@<TRIPOS>ATOM
   1 N1            -0.0179     1.4659     0.0101 N.3     
   2 C2             0.0021    -0.0041     0.0020 C.3     
   3 C3             0.7497    -0.4921    -1.2417 C.3     
   4 O4             2.0659     0.0673    -1.2506 O.3     
   5 C5             2.0838     1.4973    -1.2437 C.3     
   6 C6             1.3496     2.0055    -0.0001 C.3     
   7 C7            -1.9781     1.5574     2.9989 C.ar    
   8 N8            -2.1411     2.8491     3.2279 N.ar    
   9 C9            -1.6134     3.7654     2.4095 C.ar    
  10 C10           -0.8791     3.3438     1.2960 C.ar    
  11 C11           -0.7322     1.9461     1.0931 C.ar    
  12 N12           -1.2883     1.1097     1.9536 N.ar    
  13 C13           -0.3809     4.4625     0.5194 C.2     
  14 C14           -0.7024     5.6519     0.9917 C.2     
  15 S15           -1.6603     5.5218     2.4546 S.3     
  16 C16           -0.2968     6.9564     0.3554 C.3     
  17 N17           -1.3226     7.3693    -0.6116 N.3     
  18 C18           -1.0852     8.7422    -1.0770 C.3     
  19 C19           -2.0621     9.0697    -2.2112 C.3     
  20 N20           -3.4298     8.7998    -1.7424 N.am    
  21 C21           -3.7117     7.4897    -1.1360 C.3     
  22 C22           -2.6698     7.2244    -0.0441 C.3     
  23 S23           -4.6206     9.9407    -1.8927 S.o2    
  24 O24           -5.5378     9.6290    -0.8530 O.2     
  25 O25           -3.9212    11.1775    -1.9062 O.2     
  26 C26           -5.3615     9.6106    -3.5153 C.3     
  27 N27           -4.5129     0.7976     6.9170 N.pl3   
  28 N28           -4.3473     2.1604     6.6412 N.2     
  29 C29           -3.6438     2.3064     5.5551 C.2     
  30 C30           -3.3084     1.0272     5.0577 C.ar    
  31 C31           -2.5759     0.5808     3.9365 C.ar    
  32 C32           -2.4212    -0.7808     3.7206 C.ar    
  33 C33           -2.9809    -1.6979     4.5969 C.ar    
  34 C34           -3.6979    -1.2764     5.6945 C.ar    
  35 C35           -3.8699     0.0843     5.9372 C.ar    
  36 H36            0.5087    -0.3661     0.8967 H       
  37 H37           -1.0202    -0.3818    -0.0162 H       
  38 H38            0.8167    -1.5799    -1.2226 H       
  39 H39            0.2136    -0.1754    -2.1363 H       
  40 H40            3.1155     1.8483    -1.2262 H       
  41 H41            1.5864     1.8718    -2.1384 H       
  42 H42            1.3110     3.0946    -0.0198 H       
  43 H43            1.8778     1.6756     0.8946 H       
  44 H44            0.2081     4.3322    -0.3764 H       
  45 H45           -0.1954     7.7205     1.1260 H       
  46 H46            0.6563     6.8293    -0.1580 H       
  47 H47           -1.2394     9.4377    -0.2519 H       
  48 H48           -0.0618     8.8309    -1.4415 H       
  49 H49           -1.9690    10.1213    -2.4825 H       
  50 H50           -1.8416     8.4446    -3.0764 H       
  51 H51           -4.7091     7.4967    -0.6965 H       
  52 H52           -3.6496     6.7127    -1.8979 H       
  53 H53           -2.7956     6.2123     0.3405 H       
  54 H54           -2.8019     7.9410     0.7665 H       
  55 H55           -5.7640     8.5977    -3.5316 H       
  56 H56           -6.1649    10.3238    -3.6997 H       
  57 H57           -4.6009     9.7119    -4.2894 H       
  58 H58           -4.9944     0.4233     7.6713 H       
  59 H59           -3.3638     3.2489     5.1083 H       
  60 H60           -1.8619    -1.1284     2.8646 H       
  61 H61           -2.8534    -2.7551     4.4165 H       
  62 H62           -4.1281    -2.0025     6.3684 H       
@<TRIPOS>BOND
   1    1    2 1
   2    1    6 1
   3    1   11 1
   4    2    3 1
   5    2   36 1
   6    2   37 1
   7    3    4 1
   8    3   38 1
   9    3   39 1
  10    4    5 1
  11    5    6 1
  12    5   40 1
  13    5   41 1
  14    6   42 1
  15    6   43 1
  16    7    8 ar
  17    7   12 ar
  18    7   31 1
  19    8    9 ar
  20    9   10 ar
  21    9   15 1
  22   10   11 ar
  23   10   13 1
  24   11   12 ar
  25   13   14 2
  26   13   44 1
  27   14   15 1
  28   14   16 1
  29   16   17 1
  30   16   45 1
  31   16   46 1
  32   17   18 1
  33   17   22 1
  34   18   19 1
  35   18   47 1
  36   18   48 1
  37   19   20 1
  38   19   49 1
  39   19   50 1
  40   20   21 1
  41   20   23 am
  42   21   22 1
  43   21   51 1
  44   21   52 1
  45   22   53 1
  46   22   54 1
  47   23   24 2
  48   23   25 2
  49   23   26 1
  50   26   55 1
  51   26   56 1
  52   26   57 1
  53   27   28 1
  54   27   35 1
  55   27   58 1
  56   28   29 2
  57   29   30 1
  58   29   59 1
  59   30   31 ar
  60   30   35 ar
  61   31   32 ar
  62   32   33 ar
  63   32   60 1
  64   33   34 ar
  65   33   61 1
  66   34   35 ar
  67   34   62 1

#	End of record

