#	Name: ASD01813622
#	Creating user name:	WinNT
#	Creation time:	15. 06. 2019 19:30

#	Modifying user name:	WinNT
#	Modification time:	15. 06. 2019 19:30

#	Program:	/corina/corina34_cracker 3.40 0067  02.08.2006

@<TRIPOS>MOLECULE
ASD01813622
  67   72    0    0    0
SMALL
NO_CHARGES


@<TRIPOS>ATOM
   1 C1            -0.0178     1.4648     0.0101 C.3     
   2 N2             0.0021    -0.0041     0.0020 N.3     
   3 C3             0.5317    -0.5147    -1.2639 C.3     
   4 N4             0.5865    -1.9769    -1.2590 N.am    
   5 C5             0.2846    -2.7308    -2.4784 C.3     
   6 H6             0.0418    -2.0374    -3.2835 H       
   7 C7             1.5027    -3.5671    -2.8756 C.3     
   8 C8             1.1875    -4.3544    -4.1490 C.3     
   9 C9            -0.0049    -5.2788    -3.8951 C.3     
  10 C10           -1.2230    -4.4425    -3.4979 C.3     
  11 C11           -0.9078    -3.6552    -2.2244 C.3     
  12 H12           -0.6650    -4.3486    -1.4193 H       
  13 O13           -2.0455    -2.8741    -1.8535 O.3     
  14 C14            0.9186    -2.6280    -0.1192 C.2     
  15 O15            1.0150    -3.8400    -0.0883 O.2     
  16 C16            1.1596    -1.8075     1.0849 C.ar    
  17 C17            1.8491    -2.3304     2.1895 C.ar    
  18 C18            2.0683    -1.5677     3.2913 C.ar    
  19 C19            2.8102    -2.1457     4.4688 C.3     
  20 C20            1.8212    -2.6770     5.4741 C.ar    
  21 C21            1.3396    -1.8483     6.4713 C.ar    
  22 C22            0.4332    -2.3297     7.3943 C.ar    
  23 C23            0.0036    -3.6527     7.3202 C.ar    
  24 C24            0.4917    -4.4830     6.3138 C.ar    
  25 C25            1.3938    -3.9900     5.3928 C.ar    
  26 C26           -0.9709    -4.1761     8.3106 C.2     
  27 C27           -1.5492    -3.4526     9.3717 C.2     
  28 N28           -2.3532    -4.2541    10.0188 N.2     
  29 N29           -2.3203    -5.5105     9.4018 N.pl3   
  30 C30           -3.0799    -6.6920     9.8182 C.3     
  31 C31           -1.4735    -5.4438     8.3548 C.2     
  32 C32            1.6058    -0.2391     3.3378 C.ar    
  33 C33            1.8243     0.5650     4.4725 C.ar    
  34 C34            1.3515     1.8463     4.4573 C.ar    
  35 C35            0.6738     2.3234     3.3371 C.ar    
  36 N36            0.4724     1.5708     2.2829 N.ar    
  37 C37            0.9081     0.3098     2.2349 C.ar    
  38 C38            0.6833    -0.4952     1.0962 C.ar    
  39 H39            0.9869     1.8407     0.2030 H       
  40 H40           -0.3624     1.8288    -0.9578 H       
  41 H41           -0.6928     1.8147     0.7911 H       
  42 H42           -0.1105    -0.1834    -2.0800 H       
  43 H43            1.5359    -0.1195    -1.4170 H       
  44 H44            2.3522    -2.9085    -3.0565 H       
  45 H45            1.7456    -4.2605    -2.0704 H       
  46 H46            0.9447    -3.6610    -4.9542 H       
  47 H47            2.0553    -4.9502    -4.4320 H       
  48 H48           -0.2295    -5.8398    -4.8023 H       
  49 H49            0.2379    -5.9723    -3.0899 H       
  50 H50           -1.4659    -3.7491    -4.3030 H       
  51 H51           -2.0725    -5.1011    -3.3169 H       
  52 H52           -2.8402    -3.3960    -1.6769 H       
  53 H53            2.2082    -3.3486     2.1633 H       
  54 H54            3.4547    -2.9567     4.1296 H       
  55 H55            3.4177    -1.3686     4.9326 H       
  56 H56            1.6737    -0.8228     6.5281 H       
  57 H57            0.0581    -1.6819     8.1728 H       
  58 H58            0.1621    -5.5096     6.2521 H       
  59 H59            1.7698    -4.6317     4.6097 H       
  60 H60           -1.3607    -2.4161     9.6092 H       
  61 H61           -4.0429    -6.7034     9.3076 H       
  62 H62           -2.5216    -7.5921     9.5610 H       
  63 H63           -3.2405    -6.6595    10.8958 H       
  64 H64           -1.2343    -6.2487     7.6756 H       
  65 H65            2.3515     0.1788     5.3324 H       
  66 H66            1.5023     2.4887     5.3123 H       
  67 H67            0.3051     3.3385     3.3376 H       
@<TRIPOS>BOND
   1    1    2 1
   2    1   39 1
   3    1   40 1
   4    1   41 1
   5    2   38 1
   6    2    3 1
   7    3    4 1
   8    3   42 1
   9    3   43 1
  10    4    5 1
  11    4   14 am
  12    5    6 1
  13    5   11 1
  14    5    7 1
  15    7    8 1
  16    7   44 1
  17    7   45 1
  18    8    9 1
  19    8   46 1
  20    8   47 1
  21    9   10 1
  22    9   48 1
  23    9   49 1
  24   10   11 1
  25   10   50 1
  26   10   51 1
  27   11   12 1
  28   11   13 1
  29   13   52 1
  30   14   15 2
  31   14   16 1
  32   16   38 ar
  33   16   17 ar
  34   17   18 ar
  35   17   53 1
  36   18   19 1
  37   18   32 ar
  38   19   20 1
  39   19   54 1
  40   19   55 1
  41   20   25 ar
  42   20   21 ar
  43   21   22 ar
  44   21   56 1
  45   22   23 ar
  46   22   57 1
  47   23   24 ar
  48   23   26 1
  49   24   25 ar
  50   24   58 1
  51   25   59 1
  52   26   31 2
  53   26   27 1
  54   27   28 2
  55   27   60 1
  56   28   29 1
  57   29   30 1
  58   29   31 1
  59   30   61 1
  60   30   62 1
  61   30   63 1
  62   31   64 1
  63   32   37 ar
  64   32   33 ar
  65   33   34 ar
  66   33   65 1
  67   34   35 ar
  68   34   66 1
  69   35   36 ar
  70   35   67 1
  71   36   37 ar
  72   37   38 ar

#	End of record

