#	Name: ASD03092556
#	Creating user name:	WinNT
#	Creation time:	15. 06. 2019 20:32

#	Modifying user name:	WinNT
#	Modification time:	15. 06. 2019 20:32

#	Program:	/corina/corina34_cracker 3.40 0067  02.08.2006

@<TRIPOS>MOLECULE
ASD03092556
  44   47    0    0    0
SMALL
NO_CHARGES


@<TRIPOS>ATOM
   1 N1            -0.0169     1.3951     0.0097 N.pl3   
   2 N2             0.0021    -0.0041     0.0020 N.2     
   3 C3             1.2418    -0.4097    -0.0120 C.2     
   4 C4             2.0751     0.7313    -0.0138 C.2     
   5 C5             1.2504     1.8383    -0.0000 C.2     
   6 C6             3.5493     0.7384    -0.0274 C.2     
   7 O7             4.1523     1.7944    -0.0271 O.2     
   8 N8             4.2287    -0.4256    -0.0402 N.am    
   9 O9            -1.6024     4.6044     0.1124 O.3     
  10 C10           -0.9741     3.5310     0.8228 C.3     
  11 C11           -1.2173     2.2349     0.0202 C.3     
  12 C12           -1.5229     2.7800    -1.4015 C.3     
  13 C13           -2.2624     4.0978    -1.0586 C.3     
  14 C14            5.6936    -0.4186    -0.0537 C.3     
  15 N15            7.5939    -5.7113    -0.3742 N.pl3   
  16 C16            7.6381    -5.8624    -1.7334 C.2     
  17 C17            7.2273    -4.7338    -2.3329 C.2     
  18 C18            6.8926    -3.7821    -1.2708 C.ar    
  19 C19            6.4206    -2.4681    -1.2583 C.ar    
  20 C20            6.2026    -1.8369    -0.0664 C.ar    
  21 C21            6.4468    -2.4916     1.1333 C.ar    
  22 C22            6.9131    -3.7877     1.1441 C.ar    
  23 C23            7.1421    -4.4497    -0.0580 C.ar    
  24 C24            8.0827    -7.1108    -2.4510 C.3     
  25 H25            1.5732    -1.4376    -0.0201 H       
  26 H26            1.5666     2.8709     0.0025 H       
  27 H27            3.7477    -1.2679    -0.0405 H       
  28 H28            0.0964     3.7192     0.9059 H       
  29 H29           -1.4126     3.4385     1.8164 H       
  30 H30           -2.0696     1.6853     0.4198 H       
  31 H31           -0.6034     2.9775    -1.9526 H       
  32 H32           -2.1704     2.0983    -1.9529 H       
  33 H33           -3.3122     3.8977    -0.8444 H       
  34 H34           -2.1718     4.8075    -1.8809 H       
  35 H35            6.0462     0.1020    -0.9441 H       
  36 H36            6.0627     0.0920     0.8357 H       
  37 H37            7.8402    -6.3928     0.2706 H       
  38 H38            7.1569    -4.5604    -3.3965 H       
  39 H39            6.2292    -1.9522    -2.1877 H       
  40 H40            6.2697    -1.9794     2.0675 H       
  41 H41            7.1004    -4.2883     2.0826 H       
  42 H42            7.2230    -7.7601    -2.6171 H       
  43 H43            8.5247    -6.8407    -3.4100 H       
  44 H44            8.8218    -7.6346    -1.8449 H       
@<TRIPOS>BOND
   1    1    2 1
   2    1    5 1
   3    1   11 1
   4    2    3 2
   5    3    4 1
   6    3   25 1
   7    4    5 2
   8    4    6 1
   9    5   26 1
  10    6    7 2
  11    6    8 am
  12    8   14 1
  13    8   27 1
  14    9   10 1
  15    9   13 1
  16   10   11 1
  17   10   28 1
  18   10   29 1
  19   11   12 1
  20   11   30 1
  21   12   13 1
  22   12   31 1
  23   12   32 1
  24   13   33 1
  25   13   34 1
  26   14   20 1
  27   14   35 1
  28   14   36 1
  29   15   16 1
  30   15   23 1
  31   15   37 1
  32   16   17 2
  33   16   24 1
  34   17   18 1
  35   17   38 1
  36   18   19 ar
  37   18   23 ar
  38   19   20 ar
  39   19   39 1
  40   20   21 ar
  41   21   22 ar
  42   21   40 1
  43   22   23 ar
  44   22   41 1
  45   24   42 1
  46   24   43 1
  47   24   44 1

#	End of record

