#	Name: ASD03430006
#	Creating user name:	WinNT
#	Creation time:	15. 06. 2019 20:40

#	Modifying user name:	WinNT
#	Modification time:	15. 06. 2019 20:40

#	Program:	/corina/corina34_cracker 3.40 0067  02.08.2006

@<TRIPOS>MOLECULE
ASD03430006
  49   54    0    0    0
SMALL
NO_CHARGES


@<TRIPOS>ATOM
   1 C1            -0.2514     1.4391     0.1502 C.ar    
   2 C2            -0.1605     0.0490     0.0716 C.ar    
   3 C3             1.0557    -0.5472    -0.0773 C.ar    
   4 C4             2.2262     0.2142    -0.1437 C.ar    
   5 C5             2.1446     1.5989    -0.0724 C.ar    
   6 C6             0.9137     2.2194     0.0740 C.ar    
   7 O7             3.3247    -0.5838    -0.2629 O.3     
   8 C8             1.4745    -1.9869    -0.2138 C.3     
   9 C9             2.9191    -1.8871    -0.7225 C.3     
  10 C10            0.5342    -3.8073     0.8454 C.ar    
  11 C11            1.3881    -2.7335     1.0841 C.ar    
  12 C12            0.5981    -2.7456    -1.1686 C.2     
  13 N13            0.0897    -3.7861    -0.4788 N.am    
  14 O14            0.3888    -2.4751    -2.3322 O.2     
  15 C15            1.9515    -2.5497     2.3272 C.ar    
  16 C16            1.6722    -3.4354     3.3526 C.ar    
  17 C17            0.8257    -4.5055     3.1267 C.ar    
  18 C18            0.2581    -4.6935     1.8837 C.ar    
  19 C19           -0.8232    -4.7788    -1.0509 C.3     
  20 C20           -2.2467    -4.3266    -0.8505 C.ar    
  21 C21           -1.3709     2.3774     0.3139 C.2     
  22 O22            0.5350     3.5113     0.1688 O.3     
  23 N23           -0.8686     3.5815     0.3181 N.2     
  24 N24           -2.7122     2.0445     0.4399 N.pl3   
  25 C25           -2.5121    -3.1808    -0.1247 C.ar    
  26 C26           -3.8181    -2.7660     0.0592 C.ar    
  27 C27           -4.8583    -3.4969    -0.4831 C.ar    
  28 C28           -4.5927    -4.6426    -1.2100 C.ar    
  29 C29           -3.2869    -5.0549    -1.3975 C.ar    
  30 C30           -2.9974    -6.3037    -2.1898 C.3     
  31 F31           -4.2022    -6.8970    -2.5819 F       
  32 F32           -2.2493    -5.9730    -3.3248 F       
  33 F33           -2.2720    -7.2005    -1.3981 F       
  34 H34           -1.0543    -0.5546     0.1293 H       
  35 H35            3.0437     2.1945    -0.1308 H       
  36 H36            2.9506    -1.9405    -1.8107 H       
  37 H37            3.5404    -2.6646    -0.2779 H       
  38 H38            2.6124    -1.7135     2.5016 H       
  39 H39            2.1144    -3.2916     4.3274 H       
  40 H40            0.6079    -5.1969     3.9272 H       
  41 H41           -0.4024    -5.5312     1.7149 H       
  42 H42           -0.6224    -4.8851    -2.1170 H       
  43 H43           -0.6735    -5.7381    -0.5556 H       
  44 H44           -2.9845     1.1137     0.4240 H       
  45 H45           -3.3775     2.7427     0.5439 H       
  46 H46           -1.6994    -2.6096     0.2991 H       
  47 H47           -4.0256    -1.8710     0.6270 H       
  48 H48           -5.8785    -3.1733    -0.3389 H       
  49 H49           -5.4055    -5.2140    -1.6335 H       
@<TRIPOS>BOND
   1    1    2 ar
   2    1    6 ar
   3    1   21 1
   4    2    3 ar
   5    2   34 1
   6    3    4 ar
   7    3    8 1
   8    4    5 ar
   9    4    7 1
  10    5    6 ar
  11    5   35 1
  12    6   22 1
  13    7    9 1
  14    8    9 1
  15    8   11 1
  16    8   12 1
  17    9   36 1
  18    9   37 1
  19   10   11 ar
  20   10   13 1
  21   10   18 ar
  22   11   15 ar
  23   12   13 am
  24   12   14 2
  25   13   19 1
  26   15   16 ar
  27   15   38 1
  28   16   17 ar
  29   16   39 1
  30   17   18 ar
  31   17   40 1
  32   18   41 1
  33   19   20 1
  34   19   42 1
  35   19   43 1
  36   20   25 ar
  37   20   29 ar
  38   21   23 2
  39   21   24 1
  40   22   23 1
  41   24   44 1
  42   24   45 1
  43   25   26 ar
  44   25   46 1
  45   26   27 ar
  46   26   47 1
  47   27   28 ar
  48   27   48 1
  49   28   29 ar
  50   28   49 1
  51   29   30 1
  52   30   31 1
  53   30   32 1
  54   30   33 1

#	End of record

