#	Name: ASD01150957
#	Creating user name:	WinNT
#	Creation time:	15. 06. 2019 19:05

#	Modifying user name:	WinNT
#	Modification time:	15. 06. 2019 19:05

#	Program:	/corina/corina34_cracker 3.40 0067  02.08.2006

@<TRIPOS>MOLECULE
ASD01150957
  61   63    0    0    0
SMALL
NO_CHARGES


@<TRIPOS>ATOM
   1 N1            -0.0168     1.3855     0.0097 N.am    
   2 C2             0.0021    -0.0041     0.0020 C.2     
   3 N3             1.0916    -0.7760    -0.0121 N.2     
   4 C4             0.7450    -2.0470    -0.0158 C.2     
   5 N5            -0.6122    -2.1434    -0.0039 N.pl3   
   6 C6            -1.1096    -0.8380     0.0137 C.2     
   7 C7            -2.4630    -0.4466     0.0311 C.2     
   8 O8            -3.4367    -1.3824     0.0317 O.3     
   9 O9            -2.7548     0.7358     0.0454 O.2     
  10 C10           -4.7866    -0.9141     0.0498 C.3     
  11 S11            1.8635    -3.4084    -0.0338 S.3     
  12 C12            3.4403    -2.5197    -0.0431 C.3     
  13 C13           -1.3656    -3.3243    -0.0034 C.ar    
  14 C14           -1.3021    -4.1896     1.0808 C.ar    
  15 C15           -2.0461    -5.3532     1.0783 C.ar    
  16 C16           -2.8536    -5.6569    -0.0024 C.ar    
  17 C17           -2.9186    -4.7974    -1.0838 C.ar    
  18 C18           -2.1818    -3.6293    -1.0846 C.ar    
  19 C19            1.1411     2.0752     0.0023 C.2     
  20 O20            2.2020     1.4818    -0.0110 O.2     
  21 C21            1.1211     3.5524     0.0104 C.ar    
  22 C22           -5.0445    -0.0535    -1.1887 C.3     
  23 C23           -5.7413    -2.1097     0.0477 C.3     
  24 C24           -5.0195    -0.0777     1.3096 C.3     
  25 C25            2.3191     4.2697     0.0028 C.ar    
  26 C26            2.2939     5.6484     0.0105 C.ar    
  27 C27            1.0835     6.3217     0.0258 C.ar    
  28 C28           -0.1082     5.6157     0.0333 C.ar    
  29 C29           -0.0960     4.2369     0.0200 C.ar    
  30 Cl30           1.0600     8.0575     0.0359 Cl      
  31 C31           -5.5701    -2.9013     1.3458 C.3     
  32 C32           -6.5248    -4.0969     1.3438 C.3     
  33 C33           -6.3535    -4.8885     2.6419 C.3     
  34 H34           -0.8633     1.8590     0.0162 H       
  35 H35            3.5126    -1.8988     0.8499 H       
  36 H36            4.2613    -3.2365    -0.0547 H       
  37 H37            3.4964    -1.8885    -0.9300 H       
  38 H38           -0.6713    -3.9531     1.9249 H       
  39 H39           -1.9969    -6.0267     1.9210 H       
  40 H40           -3.4345    -6.5674    -0.0021 H       
  41 H41           -3.5497    -5.0377    -1.9267 H       
  42 H42           -2.2332    -2.9582    -1.9293 H       
  43 H43           -4.8786    -0.6494    -2.0862 H       
  44 H44           -6.0742     0.3037    -1.1749 H       
  45 H45           -4.3644     0.7983    -1.1872 H       
  46 H46           -6.7689    -1.7541    -0.0281 H       
  47 H47           -5.5159    -2.7533    -0.8026 H       
  48 H48           -4.3394     0.7741     1.3110 H       
  49 H49           -6.0492     0.2795     1.3233 H       
  50 H50           -4.8358    -0.6908     2.1919 H       
  51 H51            3.2634     3.7458    -0.0087 H       
  52 H52            3.2198     6.2043     0.0050 H       
  53 H53           -1.0488     6.1462     0.0452 H       
  54 H54           -1.0258     3.6875     0.0256 H       
  55 H55           -4.5425    -3.2569     1.4217 H       
  56 H56           -5.7956    -2.2578     2.1962 H       
  57 H57           -7.5523    -3.7413     1.2680 H       
  58 H58           -6.2993    -4.7404     0.4934 H       
  59 H59           -7.0337    -5.7402     2.6404 H       
  60 H60           -5.3260    -5.2441     2.7177 H       
  61 H61           -6.5790    -4.2449     3.4923 H       
@<TRIPOS>BOND
   1    1    2 1
   2    1   19 am
   3    1   34 1
   4    2    3 1
   5    2    6 2
   6    3    4 2
   7    4    5 1
   8    4   11 1
   9    5    6 1
  10    5   13 1
  11    6    7 1
  12    7    8 1
  13    7    9 2
  14    8   10 1
  15   10   22 1
  16   10   23 1
  17   10   24 1
  18   11   12 1
  19   12   35 1
  20   12   36 1
  21   12   37 1
  22   13   14 ar
  23   13   18 ar
  24   14   15 ar
  25   14   38 1
  26   15   16 ar
  27   15   39 1
  28   16   17 ar
  29   16   40 1
  30   17   18 ar
  31   17   41 1
  32   18   42 1
  33   19   20 2
  34   19   21 1
  35   21   25 ar
  36   21   29 ar
  37   22   43 1
  38   22   44 1
  39   22   45 1
  40   23   31 1
  41   23   46 1
  42   23   47 1
  43   24   48 1
  44   24   49 1
  45   24   50 1
  46   25   26 ar
  47   25   51 1
  48   26   27 ar
  49   26   52 1
  50   27   28 ar
  51   27   30 1
  52   28   29 ar
  53   28   53 1
  54   29   54 1
  55   31   32 1
  56   31   55 1
  57   31   56 1
  58   32   33 1
  59   32   57 1
  60   32   58 1
  61   33   59 1
  62   33   60 1
  63   33   61 1

#	End of record

