#	Name: ASD01810628
#	Creating user name:	WinNT
#	Creation time:	15. 06. 2019 19:25

#	Modifying user name:	WinNT
#	Modification time:	15. 06. 2019 19:25

#	Program:	/corina/corina34_cracker 3.40 0067  02.08.2006

@<TRIPOS>MOLECULE
ASD01810628
  23   24    0    0    0
SMALL
NO_CHARGES


@<TRIPOS>ATOM
   1 C1            -0.0156     1.2991     0.0092 C.2     
   2 N2             0.0021    -0.0041     0.0020 N.2     
   3 C3             1.2738    -0.4342    -0.0124 C.2     
   4 C4             2.0832     0.6394    -0.0144 C.2     
   5 N5             1.2712     1.7493    -0.0007 N.am    
   6 C6             1.6712     3.0363     0.0017 C.2     
   7 O7             2.8554     3.3040    -0.0085 O.2     
   8 O8             0.7583     4.0244     0.0155 O.3     
   9 O9             0.9611     7.2842    -1.4251 O.3     
  10 C10            1.4031     5.9217    -1.4238 C.3     
  11 C11            1.2612     5.3866     0.0173 C.3     
  12 C12            0.2175     6.3603     0.6292 C.3     
  13 C13            0.5851     7.6792    -0.0962 C.3     
  14 H14           -0.9006     1.9181     0.0169 H       
  15 H15            1.5923    -1.4662    -0.0205 H       
  16 H16            3.1631     0.6318    -0.0248 H       
  17 H17            0.7845     5.3317    -2.1000 H       
  18 H18            2.4462     5.8711    -1.7360 H       
  19 H19            2.2101     5.4502     0.5499 H       
  20 H20           -0.7989     6.0492     0.3877 H       
  21 H21            0.3521     6.4539     1.7068 H       
  22 H22            1.4218     8.1660     0.4048 H       
  23 H23           -0.2768     8.3457    -0.1292 H       
@<TRIPOS>BOND
   1    1    2 2
   2    1    5 1
   3    1   14 1
   4    2    3 1
   5    3    4 2
   6    3   15 1
   7    4    5 1
   8    4   16 1
   9    5    6 am
  10    6    7 2
  11    6    8 1
  12    8   11 1
  13    9   10 1
  14    9   13 1
  15   10   11 1
  16   10   17 1
  17   10   18 1
  18   11   12 1
  19   11   19 1
  20   12   13 1
  21   12   20 1
  22   12   21 1
  23   13   22 1
  24   13   23 1

#	End of record

