#	Name: ASD01120111
#	Creating user name:	WinNT
#	Creation time:	15. 06. 2019 18:59

#	Modifying user name:	WinNT
#	Modification time:	15. 06. 2019 18:59

#	Program:	/corina/corina34_cracker 3.40 0067  02.08.2006

@<TRIPOS>MOLECULE
ASD01120111
  31   33    0    0    0
SMALL
NO_CHARGES


@<TRIPOS>ATOM
   1 C1            -0.0126     1.3872     0.0954 C.ar    
   2 C2             0.0733     0.1639    -0.5543 C.ar    
   3 C3             1.2821    -0.5129    -0.5990 C.ar    
   4 C4             2.4042     0.0355     0.0067 C.ar    
   5 C5             2.3121     1.2609     0.6559 C.ar    
   6 C6             1.1057     1.9319     0.6981 C.ar    
   7 N7             3.6247    -0.6439    -0.0357 N.pl3   
   8 C8             4.8099     0.0664    -0.1479 C.2     
   9 N9             5.9996    -0.4459    -0.0803 N.2     
  10 C10            7.0249     0.3942    -0.2105 C.2     
  11 C11            6.6914     1.6829    -0.3978 C.2     
  12 S12            4.9336     1.8030    -0.4118 S.3     
  13 C13            8.4355    -0.0601    -0.1524 C.ar    
  14 C14            8.7287    -1.4086     0.0440 C.ar    
  15 C15           10.0431    -1.8256     0.0973 C.ar    
  16 C16           11.0688    -0.9082    -0.0438 C.ar    
  17 C17           10.7838     0.4314    -0.2389 C.ar    
  18 C18            9.4731     0.8590    -0.2996 C.ar    
  19 O19           -1.0273    -0.3704    -1.1459 O.3     
  20 H20           -0.9535     1.9165     0.1262 H       
  21 H21            1.3507    -1.4651    -1.1038 H       
  22 H22            3.1844     1.6887     1.1276 H       
  23 H23            1.0359     2.8840     1.2030 H       
  24 H24            3.6426    -1.6125     0.0134 H       
  25 H25            7.3824     2.5034    -0.5227 H       
  26 H26            7.9287    -2.1257     0.1546 H       
  27 H27           10.2714    -2.8701     0.2497 H       
  28 H28           12.0960    -1.2389    -0.0011 H       
  29 H29           11.5886     1.1433    -0.3480 H       
  30 H30            9.2518     1.9050    -0.4523 H       
  31 H31           -1.1421    -0.1108    -2.0703 H       
@<TRIPOS>BOND
   1    1    2 ar
   2    1    6 ar
   3    1   20 1
   4    2    3 ar
   5    2   19 1
   6    3    4 ar
   7    3   21 1
   8    4    5 ar
   9    4    7 1
  10    5    6 ar
  11    5   22 1
  12    6   23 1
  13    7    8 1
  14    7   24 1
  15    8    9 2
  16    8   12 1
  17    9   10 1
  18   10   11 2
  19   10   13 1
  20   11   12 1
  21   11   25 1
  22   13   14 ar
  23   13   18 ar
  24   14   15 ar
  25   14   26 1
  26   15   16 ar
  27   15   27 1
  28   16   17 ar
  29   16   28 1
  30   17   18 ar
  31   17   29 1
  32   18   30 1
  33   19   31 1

#	End of record

