#	Name: ASD01881949
#	Creating user name:	WinNT
#	Creation time:	15. 06. 2019 19:43

#	Modifying user name:	WinNT
#	Modification time:	15. 06. 2019 19:43

#	Program:	/corina/corina34_cracker 3.40 0067  02.08.2006

@<TRIPOS>MOLECULE
ASD01881949
  43   46    0    0    0
SMALL
NO_CHARGES


@<TRIPOS>ATOM
   1 C1            -0.0168     1.3893     0.0097 C.ar    
   2 C2             0.0021    -0.0041     0.0020 C.ar    
   3 C3             1.2225    -0.6606    -0.0131 C.ar    
   4 C4             2.3820     0.0992    -0.0201 C.ar    
   5 C5             2.2884     1.4818    -0.0118 C.ar    
   6 N6             1.1171     2.0794     0.0026 N.ar    
   7 C7            -1.3125     2.1059     0.0197 C.2     
   8 O8            -2.3528     1.4796     0.0212 O.2     
   9 O9            -1.3372     3.4524     0.0271 O.3     
  10 C10            3.5462     2.3118    -0.0193 C.3     
  11 O11            4.6857     1.4497    -0.0348 O.3     
  12 N12            9.7279     3.5897    -0.0719 N.pl3   
  13 N13           10.4147     2.3667    -0.0843 N.2     
  14 N14            9.5667     1.3994    -0.0809 N.2     
  15 C15            8.3075     1.8803    -0.0666 C.ar    
  16 C16            8.3861     3.2837    -0.0606 C.ar    
  17 C17            7.0480     1.2652    -0.0583 C.ar    
  18 C18            5.9091     2.0436    -0.0433 C.ar    
  19 C19            6.0030     3.4332    -0.0372 C.ar    
  20 C20            7.2240     4.0467    -0.0465 C.ar    
  21 C21           10.3219     4.9289    -0.0657 C.3     
  22 C22           10.5202     5.4055    -1.5059 C.3     
  23 C23           11.0231     6.8354    -1.7139 C.3     
  24 C24           11.9548     5.6509    -1.9777 C.3     
  25 Br25           6.9107    -0.6207    -0.0667 Br      
  26 C26           -2.6428     4.0878     0.0367 C.3     
  27 H27           -0.9212    -0.5644     0.0082 H       
  28 H28            1.2692    -1.7396    -0.0190 H       
  29 H29            3.3489    -0.3818    -0.0315 H       
  30 H30            3.5580     2.9456    -0.9061 H       
  31 H31            3.5749     2.9360     0.8738 H       
  32 H32            5.1035     4.0307    -0.0257 H       
  33 H33            7.2863     5.1249    -0.0419 H       
  34 H34            9.6587     5.6181     0.4571 H       
  35 H35           11.2858     4.8964     0.4423 H       
  36 H36            9.8113     5.0105    -2.2337 H       
  37 H37           10.6454     7.3810    -2.5787 H       
  38 H38           11.2127     7.4366    -0.8247 H       
  39 H39           12.7574     5.4727    -1.2620 H       
  40 H40           12.1901     5.4171    -3.0160 H       
  41 H41           -3.1985     3.7895    -0.8523 H       
  42 H42           -3.1901     3.7799     0.9276 H       
  43 H43           -2.5198     5.1708     0.0420 H       
@<TRIPOS>BOND
   1    1    2 ar
   2    1    6 ar
   3    1    7 1
   4    2    3 ar
   5    2   27 1
   6    3    4 ar
   7    3   28 1
   8    4    5 ar
   9    4   29 1
  10    5    6 ar
  11    5   10 1
  12    7    8 2
  13    7    9 1
  14    9   26 1
  15   10   11 1
  16   10   30 1
  17   10   31 1
  18   11   18 1
  19   12   13 1
  20   12   16 1
  21   12   21 1
  22   13   14 2
  23   14   15 1
  24   15   16 ar
  25   15   17 ar
  26   16   20 ar
  27   17   18 ar
  28   17   25 1
  29   18   19 ar
  30   19   20 ar
  31   19   32 1
  32   20   33 1
  33   21   22 1
  34   21   34 1
  35   21   35 1
  36   22   23 1
  37   22   24 1
  38   22   36 1
  39   23   24 1
  40   23   37 1
  41   23   38 1
  42   24   39 1
  43   24   40 1
  44   26   41 1
  45   26   42 1
  46   26   43 1

#	End of record

