#	Name: ASD02198456
#	Creating user name:	WinNT
#	Creation time:	15. 06. 2019 20:19

#	Modifying user name:	WinNT
#	Modification time:	15. 06. 2019 20:19

#	Program:	/corina/corina34_cracker 3.40 0067  02.08.2006

@<TRIPOS>MOLECULE
ASD02198456
  49   51    0    0    0
SMALL
NO_CHARGES


@<TRIPOS>ATOM
   1 C1            -0.1382    -3.1317     0.6930 C.ar    
   2 S2            -1.4799    -0.8562     0.0064 S.o2    
   3 C3            -1.3170    -2.4183     0.8051 C.ar    
   4 N4            -1.9570    -1.1499    -1.5520 N.am    
   5 O5            -2.5652    -0.1928     0.6399 O.2     
   6 O6            -0.1717    -0.3068    -0.0712 O.2     
   7 C7            -2.3682    -2.9297     1.5431 C.ar    
   8 C8            -2.2414    -4.1545     2.1703 C.ar    
   9 C9            -1.0611    -4.8698     2.0591 C.ar    
  10 C10           -0.0092    -4.3570     1.3190 C.ar    
  11 F11           -0.9361    -6.0675     2.6716 F       
  12 C12           -1.1135    -1.8455    -2.4212 C.ar    
  13 C13           -1.6165    -2.8804    -3.1980 C.ar    
  14 C14            0.2287    -1.4990    -2.5138 C.ar    
  15 C15            1.0629    -2.1873    -3.3736 C.ar    
  16 C16            0.5652    -3.2213    -4.1433 C.ar    
  17 C17           -0.7764    -3.5683    -4.0592 C.ar    
  18 O18           -1.2642    -4.5858    -4.8165 O.3     
  19 C19           -2.0129    -4.2701    -5.8981 C.ar    
  20 C20           -2.6358    -5.2809    -6.6591 C.ar    
  21 C21           -3.3995    -4.8975    -7.7691 C.ar    
  22 N22           -3.5078    -3.6152    -8.0605 N.ar    
  23 C23           -2.9065    -2.6907    -7.3203 C.ar    
  24 N24           -2.1782    -3.0050    -6.2577 N.ar    
  25 S25           -3.0877    -0.9940    -7.7598 S.3     
  26 C26           -4.1441    -1.1588    -9.2203 C.3     
  27 C27           -2.4873    -6.6988    -6.2976 C.2     
  28 O28           -3.0908    -7.6499    -7.0380 O.3     
  29 O29           -1.8204    -7.0129    -5.3312 O.2     
  30 C30           -2.9007    -9.0281    -6.6226 C.3     
  31 C31           -3.6550    -9.9569    -7.5762 C.3     
  32 H32            0.6807    -2.7334     0.1122 H       
  33 H33           -2.8221    -0.8388    -1.8612 H       
  34 H34           -3.2888    -2.3716     1.6297 H       
  35 H35           -3.0625    -4.5535     2.7474 H       
  36 H36            0.9120    -4.9138     1.2319 H       
  37 H37           -2.6604    -3.1492    -3.1310 H       
  38 H38            0.6202    -0.6910    -1.9136 H       
  39 H39            2.1059    -1.9163    -3.4446 H       
  40 H40            1.2197    -3.7571    -4.8147 H       
  41 H41           -3.8923    -5.6410    -8.3779 H       
  42 H42           -3.6327    -1.7591    -9.9727 H       
  43 H43           -5.0781    -1.6460    -8.9400 H       
  44 H44           -4.3577    -0.1706    -9.6276 H       
  45 H45           -1.8383    -9.2707    -6.6437 H       
  46 H46           -3.2831    -9.1585    -5.6102 H       
  47 H47           -4.7175    -9.7143    -7.5550 H       
  48 H48           -3.2727    -9.8265    -8.5885 H       
  49 H49           -3.5123   -10.9915    -7.2643 H       
@<TRIPOS>BOND
   1    1    3 ar
   2    1   10 ar
   3    1   32 1
   4    2    3 1
   5    2    5 2
   6    2    6 2
   7    2    4 am
   8    3    7 ar
   9    4   12 1
  10    4   33 1
  11    7    8 ar
  12    7   34 1
  13    8    9 ar
  14    8   35 1
  15    9   10 ar
  16    9   11 1
  17   10   36 1
  18   12   13 ar
  19   12   14 ar
  20   13   17 ar
  21   13   37 1
  22   14   15 ar
  23   14   38 1
  24   15   16 ar
  25   15   39 1
  26   16   17 ar
  27   16   40 1
  28   17   18 1
  29   18   19 1
  30   19   20 ar
  31   19   24 ar
  32   20   21 ar
  33   20   27 1
  34   21   22 ar
  35   21   41 1
  36   22   23 ar
  37   23   24 ar
  38   23   25 1
  39   25   26 1
  40   26   42 1
  41   26   43 1
  42   26   44 1
  43   27   28 1
  44   27   29 2
  45   28   30 1
  46   30   31 1
  47   30   45 1
  48   30   46 1
  49   31   47 1
  50   31   48 1
  51   31   49 1

#	End of record

