#	Name: ASD01410519
#	Creating user name:	WinNT
#	Creation time:	15. 06. 2019 19:18

#	Modifying user name:	WinNT
#	Modification time:	15. 06. 2019 19:18

#	Program:	/corina/corina34_cracker 3.40 0067  02.08.2006

@<TRIPOS>MOLECULE
ASD01410519
  71   74    0    0    0
SMALL
NO_CHARGES


@<TRIPOS>ATOM
   1 C1            -0.1714    -1.3906     2.5706 C.ar    
   2 C2             0.5260    -1.9705     3.6212 C.ar    
   3 C3             1.8804    -2.2039     3.4860 C.ar    
   4 N4             2.5143    -1.8825     2.3745 N.ar    
   5 C5             1.8844    -1.3283     1.3516 C.ar    
   6 C6             0.5221    -1.0654     1.4177 C.ar    
   7 O7             2.5756    -1.0135     0.2275 O.3     
   8 C8             3.9212    -1.2093     0.2297 C.ar    
   9 C9             4.4342    -2.4947     0.1018 C.ar    
  10 C10            5.7982    -2.7047     0.1028 C.ar    
  11 C11            6.6686    -1.6311     0.2319 C.ar    
  12 C12            6.1569    -0.3307     0.3609 C.ar    
  13 C13            4.7747    -0.1282     0.3535 C.ar    
  14 N14            8.0454    -1.8439     0.2338 N.am    
  15 C15            8.7266    -1.8586    -0.9291 C.2     
  16 C16            8.7528    -2.0516     1.4997 C.3     
  17 O17            9.9368    -1.9760    -0.9233 O.2     
  18 C18            8.0036    -1.7321    -2.2095 C.ar    
  19 C19            6.9781    -0.7931    -2.3468 C.ar    
  20 C20            6.3067    -0.6798    -3.5446 C.ar    
  21 C21            6.6454    -1.4943    -4.6138 C.ar    
  22 C22            7.6595    -2.4270    -4.4874 C.ar    
  23 C23            8.3456    -2.5478    -3.2932 C.ar    
  24 C24           -0.1871    -2.3410     4.8961 C.3     
  25 C25            7.7493    -2.0285     2.6544 C.3     
  26 C26            9.4649    -3.4055     1.4699 C.3     
  27 Cl27           5.7929    -1.3438    -6.1186 Cl      
  28 C28            6.3746    -0.5522     3.9489 C.3     
  29 O29            7.3188    -0.6855     2.8847 O.3     
  30 O30           10.6032    -3.3261     0.6096 O.3     
  31 C31           -0.7081    -3.7757     4.7905 C.3     
  32 C32           11.3429    -4.5447     0.5105 C.3     
  33 N33           -1.4014    -4.1359     6.0299 N.pl3   
  34 F34            9.3361    -3.4583    -3.1699 F       
  35 N35           -2.6565    -3.9555     6.2438 N.2     
  36 C36           -2.9451    -4.3886     7.4502 C.2     
  37 C37           -1.7448    -4.8638     7.9835 C.2     
  38 N38           -0.8387    -4.6806     7.0499 N.2     
  39 C39            7.0729     0.8157     0.4985 C.2     
  40 O40            8.2711     0.6540     0.3769 O.2     
  41 O41            6.5816     2.0432     0.7591 O.3     
  42 C42           -0.1913    -0.4345     0.2498 C.3     
  43 F43           -1.5456    -0.2742     0.5619 F       
  44 F44            0.3754     0.8151    -0.0231 F       
  45 F45           -0.0661    -1.2587    -0.8737 F       
  46 H46           -1.2318    -1.2016     2.6492 H       
  47 H47            2.4276    -2.6549     4.3006 H       
  48 H48            3.7617    -3.3337     0.0014 H       
  49 H49            6.1892    -3.7066     0.0033 H       
  50 H50            4.3733     0.8695     0.4523 H       
  51 H51            9.4867    -1.2581     1.6403 H       
  52 H52            6.7119    -0.1575    -1.5152 H       
  53 H53            5.5138     0.0458    -3.6507 H       
  54 H54            7.9185    -3.0586    -5.3243 H       
  55 H55            0.5054    -2.2667     5.7345 H       
  56 H56           -1.0242    -1.6612     5.0549 H       
  57 H57            6.8887    -2.6474     2.4003 H       
  58 H58            8.2233    -2.4177     3.5555 H       
  59 H59            9.7883    -3.6682     2.4771 H       
  60 H60            8.7805    -4.1678     1.0976 H       
  61 H61            6.8200    -0.9107     4.8769 H       
  62 H62            6.0980     0.4963     4.0600 H       
  63 H63            5.4855    -1.1404     3.7217 H       
  64 H64           -1.4007    -3.8500     3.9521 H       
  65 H65            0.1290    -4.4555     4.6317 H       
  66 H66           10.6975    -5.3307     0.1183 H       
  67 H67           12.1902    -4.4019    -0.1602 H       
  68 H68           11.7053    -4.8310     1.4978 H       
  69 H69           -3.9121    -4.3789     7.9310 H       
  70 H70           -1.5934    -5.2970     8.9611 H       
  71 H71            7.2213     2.7638     0.8406 H       
@<TRIPOS>BOND
   1    1    2 ar
   2    1    6 ar
   3    1   46 1
   4    2    3 ar
   5    2   24 1
   6    3    4 ar
   7    3   47 1
   8    4    5 ar
   9    5    6 ar
  10    5    7 1
  11    6   42 1
  12    7    8 1
  13    8    9 ar
  14    8   13 ar
  15    9   10 ar
  16    9   48 1
  17   10   11 ar
  18   10   49 1
  19   11   12 ar
  20   11   14 1
  21   12   13 ar
  22   12   39 1
  23   13   50 1
  24   14   15 am
  25   14   16 1
  26   15   17 2
  27   15   18 1
  28   16   26 1
  29   16   25 1
  30   16   51 1
  31   18   19 ar
  32   18   23 ar
  33   19   20 ar
  34   19   52 1
  35   20   21 ar
  36   20   53 1
  37   21   22 ar
  38   21   27 1
  39   22   23 ar
  40   22   54 1
  41   23   34 1
  42   24   31 1
  43   24   55 1
  44   24   56 1
  45   25   29 1
  46   25   57 1
  47   25   58 1
  48   26   30 1
  49   26   59 1
  50   26   60 1
  51   28   29 1
  52   28   61 1
  53   28   62 1
  54   28   63 1
  55   30   32 1
  56   31   33 1
  57   31   64 1
  58   31   65 1
  59   32   66 1
  60   32   67 1
  61   32   68 1
  62   33   35 1
  63   33   38 1
  64   35   36 2
  65   36   37 1
  66   36   69 1
  67   37   38 2
  68   37   70 1
  69   39   40 2
  70   39   41 1
  71   41   71 1
  72   42   43 1
  73   42   44 1
  74   42   45 1

#	End of record

