#	Name: ASD01812417
#	Creating user name:	WinNT
#	Creation time:	15. 06. 2019 19:28

#	Modifying user name:	WinNT
#	Modification time:	15. 06. 2019 19:28

#	Program:	/corina/corina34_cracker 3.40 0067  02.08.2006

@<TRIPOS>MOLECULE
ASD01812417
  51   54    0    0    0
SMALL
NO_CHARGES


@<TRIPOS>ATOM
   1 O1            -4.8737    -2.7146     1.2096 O.3     
   2 C2            -4.4167    -1.6032     1.9829 C.3     
   3 H3            -5.2703    -0.9999     2.2919 H       
   4 C4            -3.6776    -2.1133     3.2217 C.3     
   5 C5            -3.1883    -0.9234     4.0497 C.3     
   6 C6            -2.2397    -0.0702     3.2052 C.3     
   7 C7            -2.9787     0.4400     1.9665 C.3     
   8 C8            -3.4681    -0.7500     1.1385 C.3     
   9 H9            -2.6144    -1.3532     0.8295 H       
  10 N10           -4.1757    -0.2615    -0.0476 N.am    
  11 C11           -3.4850     0.0621    -1.1588 C.2     
  12 O12           -2.2682     0.0384    -1.1474 O.2     
  13 C13           -4.1996     0.4428    -2.3815 C.2     
  14 C14           -5.6027     0.3642    -2.4365 C.2     
  15 C15           -6.2459     0.7244    -3.5855 C.2     
  16 C16           -7.7489     0.6474    -3.6635 C.3     
  17 C17           -8.1612    -0.7517    -4.0423 C.ar    
  18 C18           -9.0515    -1.4414    -3.2415 C.ar    
  19 C19           -9.4251    -2.7280    -3.5987 C.ar    
  20 C20           -8.8863    -3.2750    -4.7540 C.ar    
  21 Br21          -9.3569    -5.0248    -5.2950 Br      
  22 C22           -8.0007    -2.5238    -5.5054 C.ar    
  23 N23           -7.6724    -1.3012    -5.1370 N.ar    
  24 C24           -5.5085     1.1663    -4.6926 C.2     
  25 C25           -6.1799     1.5349    -5.8705 C.2     
  26 C26           -5.4596     1.9646    -6.9462 C.2     
  27 C27           -4.0624     2.0313    -6.8589 C.2     
  28 C28           -3.4339     1.6724    -5.7168 C.2     
  29 N29           -4.1432     1.2418    -4.6349 N.am    
  30 C30           -3.4866     0.8960    -3.5092 C.2     
  31 O31           -2.2701     0.9716    -3.4684 O.2     
  32 H32           -5.4805    -3.3001     1.6830 H       
  33 H33           -4.3534    -2.7212     3.8233 H       
  34 H34           -2.8240    -2.7166     2.9127 H       
  35 H35           -4.0419    -0.3201     4.3586 H       
  36 H36           -2.6618    -1.2868     4.9322 H       
  37 H37           -1.8911     0.7776     3.7951 H       
  38 H38           -1.3861    -0.6734     2.8963 H       
  39 H39           -3.8324     1.0432     2.2754 H       
  40 H40           -2.3030     1.0478     1.3649 H       
  41 H41           -5.1414    -0.1710    -0.0333 H       
  42 H42           -6.1647     0.0224    -1.5800 H       
  43 H43           -8.1765     0.9023    -2.6938 H       
  44 H44           -8.1101     1.3489    -4.4155 H       
  45 H45           -9.4510    -0.9842    -2.3483 H       
  46 H46          -10.1188    -3.2910    -2.9918 H       
  47 H47           -7.5762    -2.9421    -6.4061 H       
  48 H48           -7.2571     1.4782    -5.9238 H       
  49 H49           -5.9621     2.2508    -7.8584 H       
  50 H50           -3.4857     2.3701    -7.7068 H       
  51 H51           -2.3567     1.7274    -5.6609 H       
@<TRIPOS>BOND
   1    1    2 1
   2    1   32 1
   3    2    3 1
   4    2    8 1
   5    2    4 1
   6    4    5 1
   7    4   33 1
   8    4   34 1
   9    5    6 1
  10    5   35 1
  11    5   36 1
  12    6    7 1
  13    6   37 1
  14    6   38 1
  15    7    8 1
  16    7   39 1
  17    7   40 1
  18    8    9 1
  19    8   10 1
  20   10   11 am
  21   10   41 1
  22   11   12 2
  23   11   13 1
  24   13   30 1
  25   13   14 2
  26   14   15 1
  27   14   42 1
  28   15   16 1
  29   15   24 2
  30   16   17 1
  31   16   43 1
  32   16   44 1
  33   17   23 ar
  34   17   18 ar
  35   18   19 ar
  36   18   45 1
  37   19   20 ar
  38   19   46 1
  39   20   21 1
  40   20   22 ar
  41   22   23 ar
  42   22   47 1
  43   24   29 1
  44   24   25 1
  45   25   26 2
  46   25   48 1
  47   26   27 1
  48   26   49 1
  49   27   28 2
  50   27   50 1
  51   28   29 1
  52   28   51 1
  53   29   30 am
  54   30   31 2

#	End of record

