#	Name: ASD01811878
#	Creating user name:	WinNT
#	Creation time:	15. 06. 2019 19:27

#	Modifying user name:	WinNT
#	Modification time:	15. 06. 2019 19:27

#	Program:	/corina/corina34_cracker 3.40 0067  02.08.2006

@<TRIPOS>MOLECULE
ASD01811878
  32   34    0    0    0
SMALL
NO_CHARGES


@<TRIPOS>ATOM
   1 C1             0.3039     1.7907     0.5708 C.ar    
   2 C2             0.1651     0.4069     0.5843 C.ar    
   3 C3             1.2707    -0.3979     0.3843 C.ar    
   4 C4             2.5346     0.1707     0.1672 C.ar    
   5 C5             2.6675     1.5580     0.1560 C.ar    
   6 C6             1.5407     2.3575     0.3589 C.ar    
   7 C7             3.6666    -0.7457    -0.0417 C.2     
   8 N8             4.6077    -0.5693    -0.9000 N.2     
   9 C9             4.6461     0.6026    -1.7738 C.3     
  10 C10            4.8055     1.8360    -0.9273 C.2     
  11 N11            3.8780     2.2052    -0.0467 N.am    
  12 S12            6.1238     2.7263    -1.0889 S.2     
  13 C13            3.7270    -1.9630     0.8006 C.ar    
  14 C14            4.4359    -3.0820     0.3641 C.ar    
  15 C15            4.4884    -4.2128     1.1530 C.ar    
  16 C16            3.8397    -4.2381     2.3747 C.ar    
  17 C17            3.1345    -3.1314     2.8129 C.ar    
  18 C18            3.0799    -1.9926     2.0357 C.ar    
  19 N19           -1.0914    -0.1694     0.8005 N.pl3   
  20 H20           -0.5599     2.4211     0.7221 H       
  21 H21            1.1608    -1.4722     0.3956 H       
  22 H22            1.6405     3.4328     0.3494 H       
  23 H23            5.4891     0.5191    -2.4597 H       
  24 H24            3.7171     0.6662    -2.3404 H       
  25 H25            4.0628     2.9881     0.4953 H       
  26 H26            4.9424    -3.0635    -0.5896 H       
  27 H27            5.0367    -5.0801     0.8160 H       
  28 H28            3.8836    -5.1255     2.9887 H       
  29 H29            2.6298    -3.1572     3.7674 H       
  30 H30            2.5291    -1.1293     2.3788 H       
  31 H31           -1.8667     0.3963     0.9411 H       
  32 H32           -1.1871    -1.1346     0.8098 H       
@<TRIPOS>BOND
   1    1    2 ar
   2    1    6 ar
   3    1   20 1
   4    2   19 1
   5    2    3 ar
   6    3    4 ar
   7    3   21 1
   8    4    5 ar
   9    4    7 1
  10    5    6 ar
  11    5   11 1
  12    6   22 1
  13    7    8 2
  14    7   13 1
  15    8    9 1
  16    9   10 1
  17    9   23 1
  18    9   24 1
  19   10   11 am
  20   10   12 2
  21   11   25 1
  22   13   14 ar
  23   13   18 ar
  24   14   15 ar
  25   14   26 1
  26   15   16 ar
  27   15   27 1
  28   16   17 ar
  29   16   28 1
  30   17   18 ar
  31   17   29 1
  32   18   30 1
  33   19   31 1
  34   19   32 1

#	End of record

