#	Name: ASD01917824
#	Creating user name:	WinNT
#	Creation time:	15. 06. 2019 20:10

#	Modifying user name:	WinNT
#	Modification time:	15. 06. 2019 20:10

#	Program:	/corina/corina34_cracker 3.40 0067  02.08.2006

@<TRIPOS>MOLECULE
ASD01917824
  46   50    0    0    0
SMALL
NO_CHARGES


@<TRIPOS>ATOM
   1 C1            -0.0136     1.3188    -0.0045 C.2     
   2 C2            -0.0103    -0.0281     0.0047 C.2     
   3 C3            -1.2499    -0.8861     0.0242 C.3     
   4 C4            -2.4379    -0.0295     0.4797 C.3     
   5 N5            -2.4044     1.2579    -0.2304 N.am    
   6 C6            -1.2652     2.1612     0.0136 C.3     
   7 C7            -3.3897     1.6029    -1.0828 C.2     
   8 O8            -4.2644     0.8040    -1.3563 O.2     
   9 O9             1.2629     1.7238    -0.0261 O.3     
  10 C10            2.0355     0.6259    -0.0264 C.2     
  11 N11            1.2679    -0.4293    -0.0074 N.2     
  12 C12            3.5423     0.6140    -0.0459 C.3     
  13 O13            4.0011     0.5988    -1.3992 O.3     
  14 C14            5.3459     0.5866    -1.5947 C.ar    
  15 C15            5.8606     0.5716    -2.8829 C.ar    
  16 C16            7.2280     0.5592    -3.0790 C.ar    
  17 C17            8.0834     0.5618    -1.9927 C.ar    
  18 C18            7.5729     0.5763    -0.7078 C.ar    
  19 C19            6.2063     0.5950    -0.5065 C.ar    
  20 C20           -3.4069     2.9508    -1.6842 C.ar    
  21 C21           -3.8643     3.1281    -2.9919 C.ar    
  22 C22           -3.8796     4.3872    -3.5518 C.ar    
  23 C23           -3.4418     5.4826    -2.8202 C.ar    
  24 C24           -2.9839     5.3121    -1.5126 C.ar    
  25 C25           -2.9708     4.0535    -0.9446 C.ar    
  26 O26           -3.3582     6.8053    -3.1409 O.3     
  27 C27           -3.2331     7.4992    -1.8858 C.3     
  28 O28           -2.6152     6.5303    -1.0183 O.3     
  29 H29           -1.4415    -1.2738    -0.9763 H       
  30 H30           -1.1096    -1.7147     0.7184 H       
  31 H31           -3.3693    -0.5475     0.2511 H       
  32 H32           -2.3709     0.1448     1.5536 H       
  33 H33           -1.3744     2.6417     0.9859 H       
  34 H34           -1.2158     2.9163    -0.7709 H       
  35 H35            3.9193     1.5054     0.4555 H       
  36 H36            3.9054    -0.2744     0.4708 H       
  37 H37            5.1929     0.5692    -3.7317 H       
  38 H38            7.6292     0.5471    -4.0816 H       
  39 H39            9.1521     0.5521    -2.1480 H       
  40 H40            8.2431     0.5776     0.1391 H       
  41 H41            5.8080     0.6064     0.4973 H       
  42 H42           -4.2058     2.2783    -3.5643 H       
  43 H43           -4.2331     4.5221    -4.5634 H       
  44 H44           -2.6167     3.9204     0.0669 H       
  45 H45           -2.5956     8.3766    -1.9953 H       
  46 H46           -4.2144     7.7828    -1.5055 H       
@<TRIPOS>BOND
   1    1    2 2
   2    1    9 1
   3    1    6 1
   4    2    3 1
   5    2   11 1
   6    3    4 1
   7    3   29 1
   8    3   30 1
   9    4    5 1
  10    4   31 1
  11    4   32 1
  12    5    6 1
  13    5    7 am
  14    6   33 1
  15    6   34 1
  16    7    8 2
  17    7   20 1
  18    9   10 1
  19   10   11 2
  20   10   12 1
  21   12   13 1
  22   12   35 1
  23   12   36 1
  24   13   14 1
  25   14   15 ar
  26   14   19 ar
  27   15   16 ar
  28   15   37 1
  29   16   17 ar
  30   16   38 1
  31   17   18 ar
  32   17   39 1
  33   18   19 ar
  34   18   40 1
  35   19   41 1
  36   20   21 ar
  37   20   25 ar
  38   21   22 ar
  39   21   42 1
  40   22   23 ar
  41   22   43 1
  42   23   24 ar
  43   23   26 1
  44   24   25 ar
  45   24   28 1
  46   25   44 1
  47   26   27 1
  48   27   28 1
  49   27   45 1
  50   27   46 1

#	End of record

