#	Name: ASD03330956
#	Creating user name:	WinNT
#	Creation time:	15. 06. 2019 20:38

#	Modifying user name:	WinNT
#	Modification time:	15. 06. 2019 20:38

#	Program:	/corina/corina34_cracker 3.40 0067  02.08.2006

@<TRIPOS>MOLECULE
ASD03330956
  69   72    0    0    0
SMALL
NO_CHARGES


@<TRIPOS>ATOM
   1 N1            -0.4347     2.2516    -0.2439 N.pl3   
   2 C2            -0.2459     0.9177    -0.0602 C.2     
   3 C3             1.0771     0.2463     0.2008 C.3     
   4 N4             1.7954     0.9874     1.2493 N.3     
   5 C5             2.6171     2.0550     0.6759 C.3     
   6 C6             1.9530     2.6494    -0.5628 C.3     
   7 C7             0.6101     3.2774    -0.1803 C.3     
   8 C8            -1.7639     2.4470    -0.4825 C.2     
   9 N9            -2.3740     1.2861    -0.4306 N.2     
  10 C10           -1.4652     0.3213    -0.1688 C.2     
  11 C11           -1.7436    -1.1188    -0.0267 C.2     
  12 O12           -0.8361    -1.8931     0.2101 O.2     
  13 N13           -3.0038    -1.5778    -0.1591 N.am    
  14 C14            2.6084     0.0813     2.0715 C.3     
  15 C15           -2.4095     3.7497    -0.7539 C.ar    
  16 C16           -3.3123     3.8786    -1.8129 C.ar    
  17 C17           -3.9122     5.0989    -2.0603 C.ar    
  18 C18           -3.6204     6.1902    -1.2625 C.ar    
  19 C19           -2.7264     6.0686    -0.2122 C.ar    
  20 C20           -2.1244     4.8537     0.0495 C.ar    
  21 F21           -3.5976     2.8131    -2.5930 F       
  22 Cl22          -2.3665     7.4453     0.7822 Cl      
  23 C23           -4.5361    -3.3556    -0.7761 C.2     
  24 C24           -3.2806    -3.0094    -0.0178 C.3     
  25 C25           -3.4687    -3.3489     1.4621 C.3     
  26 C26           -4.5538    -2.4496     2.0577 C.3     
  27 O27           -5.4450    -2.5553    -0.8418 O.2     
  28 C28           -3.8880    -4.8138     1.6000 C.3     
  29 C29           -2.1525    -3.1227     2.2086 C.3     
  30 N30           -4.6488    -4.5545    -1.3814 N.am    
  31 C31           -3.5081    -5.4734    -1.4048 C.3     
  32 O32           -5.6962    -6.0657    -2.8755 O.3     
  33 C33           -5.9121    -4.9388    -2.0159 C.3     
  34 O34           -6.8685    -5.3029    -1.0064 O.3     
  35 C35           -6.7722    -6.7442    -0.9078 C.3     
  36 C36           -6.5166    -7.1441    -2.3825 C.3     
  37 H37            0.9069    -0.7785     0.5305 H       
  38 H38            1.6702     0.2421    -0.7138 H       
  39 H39            2.7547     2.8397     1.4198 H       
  40 H40            3.5905     1.6491     0.4005 H       
  41 H41            2.6019     3.4138    -0.9903 H       
  42 H42            1.7884     1.8622    -1.2987 H       
  43 H43            0.3731     4.0826    -0.8757 H       
  44 H44            0.6692     3.6750     0.8328 H       
  45 H45           -3.7276    -0.9602    -0.3480 H       
  46 H46            3.2901    -0.4777     1.4304 H       
  47 H47            3.1826     0.6623     2.7932 H       
  48 H48            1.9558    -0.6130     2.6008 H       
  49 H49           -4.6098     5.2005    -2.8784 H       
  50 H50           -4.0917     7.1417    -1.4598 H       
  51 H51           -1.4310     4.7595     0.8722 H       
  52 H52           -2.4444    -3.5824    -0.4186 H       
  53 H53           -5.4916    -2.6108     1.5259 H       
  54 H54           -4.6879    -2.6914     3.1120 H       
  55 H55           -4.2551    -1.4059     1.9594 H       
  56 H56           -3.0807    -5.4573     1.2504 H       
  57 H57           -4.1009    -5.0339     2.6462 H       
  58 H58           -4.7812    -4.9940     1.0018 H       
  59 H59           -1.8538    -2.0790     2.1103 H       
  60 H60           -2.2865    -3.3645     3.2629 H       
  61 H61           -1.3794    -3.7634     1.7843 H       
  62 H62           -3.4897    -6.0532    -0.4819 H       
  63 H63           -3.6023    -6.1479    -2.2558 H       
  64 H64           -2.5837    -4.9028    -1.4939 H       
  65 H65           -6.2984    -4.1025    -2.5986 H       
  66 H66           -5.9354    -7.0369    -0.2735 H       
  67 H67           -7.7052    -7.1736    -0.5431 H       
  68 H68           -7.4546    -7.1982    -2.9350 H       
  69 H69           -5.9809    -8.0918    -2.4373 H       
@<TRIPOS>BOND
   1    1    2 1
   2    1    7 1
   3    1    8 1
   4    2    3 1
   5    2   10 2
   6    3    4 1
   7    3   37 1
   8    3   38 1
   9    4    5 1
  10    4   14 1
  11    5    6 1
  12    5   39 1
  13    5   40 1
  14    6    7 1
  15    6   41 1
  16    6   42 1
  17    7   43 1
  18    7   44 1
  19    8    9 2
  20    8   15 1
  21    9   10 1
  22   10   11 1
  23   11   12 2
  24   11   13 am
  25   13   24 1
  26   13   45 1
  27   14   46 1
  28   14   47 1
  29   14   48 1
  30   15   16 ar
  31   15   20 ar
  32   16   17 ar
  33   16   21 1
  34   17   18 ar
  35   17   49 1
  36   18   19 ar
  37   18   50 1
  38   19   20 ar
  39   19   22 1
  40   20   51 1
  41   23   27 2
  42   23   30 am
  43   23   24 1
  44   24   25 1
  45   24   52 1
  46   25   26 1
  47   25   28 1
  48   25   29 1
  49   26   53 1
  50   26   54 1
  51   26   55 1
  52   28   56 1
  53   28   57 1
  54   28   58 1
  55   29   59 1
  56   29   60 1
  57   29   61 1
  58   30   31 1
  59   30   33 1
  60   31   62 1
  61   31   63 1
  62   31   64 1
  63   32   33 1
  64   32   36 1
  65   33   34 1
  66   33   65 1
  67   34   35 1
  68   35   36 1
  69   35   66 1
  70   35   67 1
  71   36   68 1
  72   36   69 1

#	End of record

