#	Name: ASD05720020
#	Creating user name:	WinNT
#	Creation time:	15. 06. 2019 21:01

#	Modifying user name:	WinNT
#	Modification time:	15. 06. 2019 21:01

#	Program:	/corina/corina34_cracker 3.40 0067  02.08.2006

@<TRIPOS>MOLECULE
ASD05720020
  66   70    0    0    0
SMALL
NO_CHARGES


@<TRIPOS>ATOM
   1 C1             0.0060     1.6782    -0.0304 C.2     
   2 C2             0.0169     0.1714    -0.0145 C.3     
   3 O3             1.0480     2.2898    -0.0476 O.2     
   4 O4            -1.1612     2.3410    -0.0310 O.3     
   5 N5             1.4016    -0.3071    -0.0237 N.pl3   
   6 N6             2.3969     0.0193    -0.9591 N.2     
   7 C7             3.4844    -0.6248    -0.5944 C.2     
   8 N8             3.2148    -1.3296     0.5131 N.2     
   9 C9             1.9707    -1.1406     0.8655 C.2     
  10 C10            4.7916    -0.5792    -1.2934 C.ar    
  11 C11            5.8712    -1.3125    -0.8012 C.ar    
  12 C12            7.0853    -1.2703    -1.4494 C.ar    
  13 C13            7.2354    -0.4937    -2.5998 C.ar    
  14 C14            6.1542     0.2396    -3.0922 C.ar    
  15 C15            4.9393     0.1924    -2.4459 C.ar    
  16 C16            8.7587    -0.6431    -4.6672 C.2     
  17 N17            7.9326    -0.9089    -5.6838 N.2     
  18 C18            8.3960    -1.0452    -6.9119 C.2     
  19 C19            9.7765    -0.9111    -7.1642 C.2     
  20 C20           10.6152    -0.6422    -6.1379 C.2     
  21 N21           10.1054    -0.5061    -4.8766 N.pl3   
  22 N22           10.7074    -0.2337    -3.6430 N.2     
  23 C23            9.7877    -0.2017    -2.7103 C.2     
  24 C24            8.5402    -0.4475    -3.2969 C.2     
  25 O25            6.8261    -1.6612   -10.0618 O.3     
  26 C26            7.8532    -1.3752    -9.2539 C.2     
  27 N27            7.5233    -1.3213    -7.9562 N.am    
  28 C28            6.0861    -1.6027    -7.8184 C.3     
  29 C29            5.6169    -1.8345    -9.2677 C.3     
  30 O30            8.9821    -1.1823    -9.6595 O.2     
  31 C31            5.3603    -0.4043    -7.2036 C.3     
  32 C32            5.5582     0.8237    -8.0946 C.3     
  33 C33            3.8668    -0.7162    -7.0896 C.3     
  34 C34           -1.0958     3.7914    -0.0467 C.3     
  35 C35           -0.3591     4.2551    -1.3049 C.3     
  36 C36           -2.5138     4.3660    -0.0450 C.3     
  37 C37           -0.3454     4.2815     1.1934 C.3     
  38 H38           -0.4851    -0.1862     0.8845 H       
  39 H39           -0.5033    -0.2050    -0.8953 H       
  40 H40            1.4823    -1.5805     1.7225 H       
  41 H41            5.7549    -1.9133     0.0887 H       
  42 H42            7.9213    -1.8376    -1.0678 H       
  43 H43            6.2697     0.8406    -3.9821 H       
  44 H44            4.1016     0.7561    -2.8292 H       
  45 H45           10.1607    -1.0225    -8.1674 H       
  46 H46           11.6757    -0.5365    -6.3126 H       
  47 H47            9.9626    -0.0127    -1.6614 H       
  48 H48            5.9272    -2.4977    -7.2167 H       
  49 H49            4.8660    -1.0962    -9.5489 H       
  50 H50            5.2241    -2.8444    -9.3852 H       
  51 H51            5.7662    -0.2031    -6.2122 H       
  52 H52            5.2295     0.5940    -9.1081 H       
  53 H53            4.9728     1.6553    -7.7024 H       
  54 H54            6.6134     1.0966    -8.1080 H       
  55 H55            3.7195    -1.5359    -6.3863 H       
  56 H56            3.3372     0.1675    -6.7336 H       
  57 H57            3.4797    -1.0025    -8.0675 H       
  58 H58           -0.8936     3.9060    -2.1884 H       
  59 H59           -0.3099     5.3439    -1.3167 H       
  60 H60            0.6512     3.8458    -1.3061 H       
  61 H61           -3.0386     4.0357     0.8514 H       
  62 H62           -2.4646     5.4548    -0.0568 H       
  63 H63           -3.0483     4.0169    -0.9285 H       
  64 H64            0.6648     3.8721     1.1922 H       
  65 H65           -0.2963     5.3703     1.1816 H       
  66 H66           -0.8703     3.9511     2.0898 H       
@<TRIPOS>BOND
   1    1    2 1
   2    1    3 2
   3    1    4 1
   4    2    5 1
   5    2   38 1
   6    2   39 1
   7    4   34 1
   8    5    6 1
   9    5    9 1
  10    6    7 2
  11    7    8 1
  12    7   10 1
  13    8    9 2
  14    9   40 1
  15   10   11 ar
  16   10   15 ar
  17   11   12 ar
  18   11   41 1
  19   12   13 ar
  20   12   42 1
  21   13   14 ar
  22   13   24 1
  23   14   15 ar
  24   14   43 1
  25   15   44 1
  26   16   17 1
  27   16   21 1
  28   16   24 2
  29   17   18 2
  30   18   19 1
  31   18   27 1
  32   19   20 2
  33   19   45 1
  34   20   21 1
  35   20   46 1
  36   21   22 1
  37   22   23 2
  38   23   24 1
  39   23   47 1
  40   25   26 1
  41   25   29 1
  42   26   27 am
  43   26   30 2
  44   27   28 1
  45   28   29 1
  46   28   31 1
  47   28   48 1
  48   29   49 1
  49   29   50 1
  50   31   32 1
  51   31   33 1
  52   31   51 1
  53   32   52 1
  54   32   53 1
  55   32   54 1
  56   33   55 1
  57   33   56 1
  58   33   57 1
  59   34   35 1
  60   34   37 1
  61   34   36 1
  62   35   58 1
  63   35   59 1
  64   35   60 1
  65   36   61 1
  66   36   62 1
  67   36   63 1
  68   37   64 1
  69   37   65 1
  70   37   66 1

#	End of record

