#	Name: ASD02198503
#	Creating user name:	WinNT
#	Creation time:	15. 06. 2019 20:19

#	Modifying user name:	WinNT
#	Modification time:	15. 06. 2019 20:19

#	Program:	/corina/corina34_cracker 3.40 0067  02.08.2006

@<TRIPOS>MOLECULE
ASD02198503
  40   43    0    0    0
SMALL
NO_CHARGES


@<TRIPOS>ATOM
   1 C1             0.1287     1.1231    -2.6504 C.2     
   2 C2             0.1393    -0.1855    -2.2942 C.2     
   3 N3             1.1498    -0.6942    -1.5524 N.pl3   
   4 N4             2.1437     0.0044    -1.1433 N.2     
   5 C5             2.2573     1.2860    -1.4178 C.2     
   6 C6             1.2073     1.9340    -2.2205 C.2     
   7 C7             1.1078    -2.0509    -1.2144 C.ar    
   8 C8            -0.1011    -3.9482    -0.3839 C.ar    
   9 C9             1.0246    -4.7347    -0.5458 C.ar    
  10 C10            2.1938    -4.1816    -1.0359 C.ar    
  11 C11            2.2388    -2.8427    -1.3705 C.ar    
  12 C12            3.4163     2.0601    -0.9293 C.2     
  13 N13            4.4068     1.6084    -0.0949 N.pl3   
  14 C14            5.2530     2.6626     0.0786 C.2     
  15 N15            4.7788     3.6634    -0.6146 N.2     
  16 N16            3.6985     3.3127    -1.2160 N.2     
  17 C17            4.5244     0.3281     0.4634 C.ar    
  18 C18            3.4688    -0.2172     1.1815 C.ar    
  19 O19            1.2641     3.1210    -2.5042 O.2     
  20 C20            5.6947    -0.3996     0.2945 C.ar    
  21 C21            5.8074    -1.6611     0.8454 C.ar    
  22 C22            4.7560    -2.1996     1.5643 C.ar    
  23 C23            3.5874    -1.4792     1.7301 C.ar    
  24 C24           -0.0630    -2.6083    -0.7166 C.ar    
  25 C25           -1.3729    -4.5553     0.1499 C.3     
  26 F26           -1.3707    -5.9328    -0.0948 F       
  27 F27           -1.4564    -4.3266     1.5276 F       
  28 F28           -2.4723    -3.9702    -0.4874 F       
  29 H29           -0.6738     1.5325    -3.2461 H       
  30 H30           -0.6695    -0.8296    -2.6065 H       
  31 H31            0.9909    -5.7831    -0.2888 H       
  32 H32            3.0713    -4.7986    -1.1612 H       
  33 H33            3.1519    -2.4115    -1.7534 H       
  34 H34            6.1506     2.6695     0.6792 H       
  35 H35            2.5558     0.3450     1.3114 H       
  36 H36            6.5159     0.0202    -0.2674 H       
  37 H37            6.7175    -2.2277     0.7144 H       
  38 H38            4.8463    -3.1864     1.9939 H       
  39 H39            2.7681    -1.9022     2.2924 H       
  40 H40           -0.9425    -1.9945    -0.5895 H       
@<TRIPOS>BOND
   1    1    2 2
   2    1    6 1
   3    1   29 1
   4    2    3 1
   5    2   30 1
   6    3    4 1
   7    3    7 1
   8    4    5 2
   9    5    6 1
  10    5   12 1
  11    6   19 2
  12    7   24 ar
  13    7   11 ar
  14    8    9 ar
  15    8   25 1
  16    8   24 ar
  17    9   10 ar
  18    9   31 1
  19   10   11 ar
  20   10   32 1
  21   11   33 1
  22   12   13 1
  23   12   16 2
  24   13   14 1
  25   13   17 1
  26   14   15 2
  27   14   34 1
  28   15   16 1
  29   17   20 ar
  30   17   18 ar
  31   18   23 ar
  32   18   35 1
  33   20   21 ar
  34   20   36 1
  35   21   22 ar
  36   21   37 1
  37   22   23 ar
  38   22   38 1
  39   23   39 1
  40   24   40 1
  41   25   26 1
  42   25   27 1
  43   25   28 1

#	End of record

