#	Name: ASD01885712
#	Creating user name:	WinNT
#	Creation time:	15. 06. 2019 19:50

#	Modifying user name:	WinNT
#	Modification time:	15. 06. 2019 19:50

#	Program:	/corina/corina34_cracker 3.40 0067  02.08.2006

@<TRIPOS>MOLECULE
ASD01885712
  61   64    0    0    0
SMALL
NO_CHARGES


@<TRIPOS>ATOM
   1 C1            -0.7728     2.0827    -0.9774 C.ar    
   2 C2            -2.0193     2.6946    -1.2645 C.ar    
   3 C3            -2.0625     4.0924    -1.4997 C.ar    
   4 C4            -0.8689     4.7990    -1.4365 C.ar    
   5 C5             0.3197     4.1197    -1.1472 C.ar    
   6 N6             0.3394     2.8171    -0.9366 N.ar    
   7 C7            -0.7316     0.6949    -0.7440 C.ar    
   8 C8            -1.8807    -0.0322    -0.7919 C.ar    
   9 C9            -3.1039     0.5745    -1.0691 C.ar    
  10 C10           -3.1810     1.9136    -1.3112 C.ar    
  11 C11           -3.3395     4.7764    -1.8036 C.ar    
  12 C12           -4.1828     4.2747    -2.7958 C.ar    
  13 C13           -5.3715     4.9141    -3.0758 C.ar    
  14 C14           -3.7058     5.9215    -1.0944 C.ar    
  15 C15            1.5910     4.8807    -1.0885 C.2     
  16 N16            2.7474     4.2413    -0.8227 N.am    
  17 O17            1.5903     6.0805    -1.2799 O.2     
  18 C18           -1.8314    -1.5152    -0.5289 C.3     
  19 C19           -5.7300     6.0564    -2.3720 C.ar    
  20 C20           -4.8956     6.5554    -1.3797 C.ar    
  21 O21           -6.9018     6.6841    -2.6508 O.3     
  22 C22           -5.2893     7.7950    -0.6184 C.3     
  23 C23           -7.7144     6.1141    -3.6788 C.3     
  24 N24           -1.6253    -2.2286    -1.7917 N.pl3   
  25 C25           -0.4204    -2.5624    -2.3488 C.2     
  26 C26           -0.6886    -3.2055    -3.5012 C.2     
  27 N27           -2.0211    -3.2628    -3.6439 N.2     
  28 C28           -2.5887    -2.6848    -2.6208 C.2     
  29 C29            0.3297    -3.7631    -4.4620 C.3     
  30 C30           -0.3888    -4.4155    -5.6448 C.3     
  31 C31            1.2246    -2.6310    -4.9704 C.3     
  32 O32            1.1305    -4.7397    -3.7936 O.3     
  33 C33           -1.2192    -5.6000    -5.1466 C.3     
  34 F34            1.9721    -2.1141    -3.9068 F       
  35 F35            2.0902    -3.1257    -5.9518 F       
  36 F36            0.4297    -1.6180    -5.5174 F       
  37 H37           -0.8579     5.8650    -1.6097 H       
  38 H38            0.2086     0.2092    -0.5281 H       
  39 H39           -4.0025    -0.0241    -1.0928 H       
  40 H40           -4.1345     2.3716    -1.5292 H       
  41 H41           -3.9043     3.3868    -3.3439 H       
  42 H42           -6.0246     4.5263    -3.8435 H       
  43 H43           -3.0576     6.3100    -0.3228 H       
  44 H44            2.7479     3.2835    -0.6699 H       
  45 H45            3.5790     4.7391    -0.7843 H       
  46 H46           -1.0091    -1.7363     0.1517 H       
  47 H47           -2.7712    -1.8360    -0.0795 H       
  48 H48           -5.8659     7.5127     0.2624 H       
  49 H49           -4.3923     8.3315    -0.3089 H       
  50 H50           -5.8943     8.4375    -1.2582 H       
  51 H51           -7.1586     6.1016    -4.6164 H       
  52 H52           -7.9863     5.0949    -3.4040 H       
  53 H53           -8.6184     6.7110    -3.8003 H       
  54 H54            0.5576    -2.3502    -1.9425 H       
  55 H55           -3.6527    -2.5818    -2.4664 H       
  56 H56           -1.0449    -3.6856    -6.1188 H       
  57 H57            0.3471    -4.7664    -6.3682 H       
  58 H58            0.6279    -5.4884    -3.4443 H       
  59 H59           -0.5543    -6.3762    -4.7677 H       
  60 H60           -1.8828    -5.2683    -4.3480 H       
  61 H61           -1.8123    -5.9995    -5.9693 H       
@<TRIPOS>BOND
   1    1    7 ar
   2    1    6 ar
   3    1    2 ar
   4    2    3 ar
   5    2   10 ar
   6    3   11 1
   7    3    4 ar
   8    4    5 ar
   9    4   37 1
  10    5   15 1
  11    5    6 ar
  12    7    8 ar
  13    7   38 1
  14    8    9 ar
  15    8   18 1
  16    9   10 ar
  17    9   39 1
  18   10   40 1
  19   11   12 ar
  20   11   14 ar
  21   12   13 ar
  22   12   41 1
  23   13   19 ar
  24   13   42 1
  25   14   20 ar
  26   14   43 1
  27   15   16 am
  28   15   17 2
  29   16   44 1
  30   16   45 1
  31   18   24 1
  32   18   46 1
  33   18   47 1
  34   19   20 ar
  35   19   21 1
  36   20   22 1
  37   21   23 1
  38   22   48 1
  39   22   49 1
  40   22   50 1
  41   23   51 1
  42   23   52 1
  43   23   53 1
  44   24   25 1
  45   24   28 1
  46   25   26 2
  47   25   54 1
  48   26   27 1
  49   26   29 1
  50   27   28 2
  51   28   55 1
  52   29   30 1
  53   29   31 1
  54   29   32 1
  55   30   33 1
  56   30   56 1
  57   30   57 1
  58   31   34 1
  59   31   35 1
  60   31   36 1
  61   32   58 1
  62   33   59 1
  63   33   60 1
  64   33   61 1

#	End of record

