#	Name: ASD05430560
#	Creating user name:	WinNT
#	Creation time:	15. 06. 2019 21:00

#	Modifying user name:	WinNT
#	Modification time:	15. 06. 2019 21:00

#	Program:	/corina/corina34_cracker 3.40 0067  02.08.2006

@<TRIPOS>MOLECULE
ASD05430560
  32   33    0    0    0
SMALL
NO_CHARGES


@<TRIPOS>ATOM
   1 C1            -0.0170     1.4039     0.0098 C.ar    
   2 C2             0.0021    -0.0041     0.0020 C.ar    
   3 C3             1.1637     2.1333     0.0024 C.ar    
   4 C4             2.3646     1.4801    -0.0126 C.ar    
   5 C5             2.4037     0.0910    -0.0205 C.ar    
   6 C6             1.2599    -0.6454    -0.0135 C.ar    
   7 C7             1.1221     3.6397     0.0104 C.3     
   8 C8             1.3355    -2.1505    -0.0218 C.3     
   9 C9             2.0697    -2.6173    -1.2804 C.3     
  10 C10            2.0931    -2.6300     1.2180 C.3     
  11 C11            1.8406     4.1631     1.2557 C.3     
  12 C12            1.8173     4.1757    -1.2427 C.3     
  13 C13           -1.3388    -0.5547     0.0119 C.2     
  14 N14           -2.3271     0.2700     0.0258 N.2     
  15 S15           -1.7240     1.8529     0.0213 S.3     
  16 H16            3.2851     2.0450    -0.0187 H       
  17 H17            3.3589    -0.4128    -0.0327 H       
  18 H18            0.0848     3.9744     0.0218 H       
  19 H19            0.3274    -2.5650    -0.0145 H       
  20 H20            3.0778    -2.2028    -1.2877 H       
  21 H21            2.1244    -3.7059    -1.2864 H       
  22 H22            1.5300    -2.2757    -2.1636 H       
  23 H23            1.5701    -2.2974     2.1146 H       
  24 H24            2.1478    -3.7186     1.2119 H       
  25 H25            3.1012    -2.2155     1.2106 H       
  26 H26            2.8779     3.8283     1.2443 H       
  27 H27            1.8106     5.2527     1.2615 H       
  28 H28            1.3454     3.7812     2.1484 H       
  29 H29            1.3053     3.8028    -2.1298 H       
  30 H30            1.7872     5.2653    -1.2369 H       
  31 H31            2.8545     3.8410    -1.2541 H       
  32 H32           -1.5034    -1.6221     0.0074 H       
@<TRIPOS>BOND
   1    1    2 ar
   2    1    3 ar
   3    1   15 1
   4    2   13 1
   5    2    6 ar
   6    3    4 ar
   7    3    7 1
   8    4    5 ar
   9    4   16 1
  10    5    6 ar
  11    5   17 1
  12    6    8 1
  13    7   11 1
  14    7   12 1
  15    7   18 1
  16    8    9 1
  17    8   10 1
  18    8   19 1
  19    9   20 1
  20    9   21 1
  21    9   22 1
  22   10   23 1
  23   10   24 1
  24   10   25 1
  25   11   26 1
  26   11   27 1
  27   11   28 1
  28   12   29 1
  29   12   30 1
  30   12   31 1
  31   13   14 2
  32   13   32 1
  33   14   15 1

#	End of record

