#	Name: ASD02198486
#	Creating user name:	WinNT
#	Creation time:	15. 06. 2019 20:19

#	Modifying user name:	WinNT
#	Modification time:	15. 06. 2019 20:19

#	Program:	/corina/corina34_cracker 3.40 0067  02.08.2006

@<TRIPOS>MOLECULE
ASD02198486
  51   55    0    0    0
SMALL
NO_CHARGES


@<TRIPOS>ATOM
   1 C1             0.0845     1.0081    -0.1357 C.2     
   2 C2             0.3457    -0.3206    -0.2210 C.2     
   3 N3             1.6180    -0.7782    -0.2221 N.pl3   
   4 N4             2.6421    -0.0111    -0.1451 N.2     
   5 C5             2.5306     1.2971    -0.0581 C.2     
   6 C6             1.1853     1.8938    -0.0488 C.2     
   7 C7             1.8274    -2.1587    -0.3113 C.ar    
   8 C8             3.3209    -4.0187    -0.5597 C.ar    
   9 C9             2.2417    -4.8912    -0.4878 C.ar    
  10 C10            0.9540    -4.3923    -0.3330 C.ar    
  11 C11            0.7476    -3.0308    -0.2451 C.ar    
  12 C12            3.7329     2.1506     0.0296 C.2     
  13 N13            4.8691     1.8822     0.7399 N.pl3   
  14 N14            5.7547     2.9500     0.5475 N.2     
  15 C15            5.1894     3.8288    -0.2413 C.2     
  16 C16            3.9223     3.3643    -0.5941 C.2     
  17 C17            5.1054     0.7438     1.5209 C.ar    
  18 C18            4.1057     0.2468     2.3467 C.ar    
  19 O19            1.0254     3.1028     0.0299 O.2     
  20 C20            3.1144    -2.6573    -0.4718 C.ar    
  21 C21            6.3379     0.1063     1.4667 C.ar    
  22 C22            6.5676    -1.0163     2.2376 C.ar    
  23 C23            5.5718    -1.5057     3.0629 C.ar    
  24 C24            4.3416    -0.8763     3.1152 C.ar    
  25 N25            2.4507    -6.2696    -0.5768 N.3     
  26 C26            1.1802    -7.0026    -0.4779 C.3     
  27 C27            1.4479    -8.5013    -0.6397 C.3     
  28 O28            2.3934    -8.9209     0.3478 O.3     
  29 C29            3.6426    -8.2279     0.2800 C.3     
  30 C30            3.3971    -6.7265     0.4512 C.3     
  31 H31           -0.9301     1.3782    -0.1385 H       
  32 H32           -0.4730    -1.0216    -0.2886 H       
  33 H33            4.3217    -4.4065    -0.6796 H       
  34 H34            0.1153    -5.0703    -0.2771 H       
  35 H35           -0.2531    -2.6431    -0.1244 H       
  36 H36            5.6323     4.7582    -0.5677 H       
  37 H37            3.2145     3.8687    -1.2352 H       
  38 H38            3.1448     0.7381     2.3882 H       
  39 H39            3.9531    -1.9792    -0.5280 H       
  40 H40            7.1160     0.4878     0.8220 H       
  41 H41            7.5259    -1.5127     2.1957 H       
  42 H42            5.7538    -2.3838     3.6648 H       
  43 H43            3.5659    -1.2609     3.7607 H       
  44 H44            0.7277    -6.8168     0.4962 H       
  45 H45            0.5040    -6.6667    -1.2640 H       
  46 H46            0.5171    -9.0534    -0.5102 H       
  47 H47            1.8506    -8.6937    -1.6342 H       
  48 H48            4.2991    -8.5823     1.0747 H       
  49 H49            4.1091    -8.4124    -0.6877 H       
  50 H50            4.3392    -6.1890     0.3432 H       
  51 H51            2.9801    -6.5363     1.4401 H       
@<TRIPOS>BOND
   1    1    2 2
   2    1    6 1
   3    1   31 1
   4    2    3 1
   5    2   32 1
   6    3    4 1
   7    3    7 1
   8    4    5 2
   9    5    6 1
  10    5   12 1
  11    6   19 2
  12    7   20 ar
  13    7   11 ar
  14    8    9 ar
  15    8   20 ar
  16    8   33 1
  17    9   10 ar
  18    9   25 1
  19   10   11 ar
  20   10   34 1
  21   11   35 1
  22   12   13 1
  23   12   16 2
  24   13   14 1
  25   13   17 1
  26   14   15 2
  27   15   16 1
  28   15   36 1
  29   16   37 1
  30   17   21 ar
  31   17   18 ar
  32   18   24 ar
  33   18   38 1
  34   20   39 1
  35   21   22 ar
  36   21   40 1
  37   22   23 ar
  38   22   41 1
  39   23   24 ar
  40   23   42 1
  41   24   43 1
  42   25   26 1
  43   25   30 1
  44   26   27 1
  45   26   44 1
  46   26   45 1
  47   27   28 1
  48   27   46 1
  49   27   47 1
  50   28   29 1
  51   29   30 1
  52   29   48 1
  53   29   49 1
  54   30   50 1
  55   30   51 1

#	End of record

