#	Name: ASD05430559
#	Creating user name:	WinNT
#	Creation time:	15. 06. 2019 21:00

#	Modifying user name:	WinNT
#	Modification time:	15. 06. 2019 21:00

#	Program:	/corina/corina34_cracker 3.40 0067  02.08.2006

@<TRIPOS>MOLECULE
ASD05430559
  43   44    0    0    0
SMALL
NO_CHARGES


@<TRIPOS>ATOM
   1 C1            -0.0168     1.3868     0.0097 C.ar    
   2 C2             0.0021    -0.0041     0.0020 C.ar    
   3 C3             1.1198     2.1484     0.0029 C.ar    
   4 C4             2.3611     1.5342    -0.0336 C.ar    
   5 C5             2.4167     0.1530    -0.0626 C.ar    
   6 C6             1.2690    -0.6027    -0.0453 C.ar    
   7 C7             1.0218     3.6519     0.0346 C.3     
   8 C8             1.3743    -2.1057    -0.0779 C.3     
   9 C9             2.0942    -2.5389    -1.3566 C.3     
  10 C10            2.1642    -2.5881     1.1404 C.3     
  11 C11            1.7323     4.1831     1.2812 C.3     
  12 C12            1.6842     4.2327    -1.2163 C.3     
  13 C13           -1.3173    -0.7305     0.0556 C.3     
  14 C14           -2.5353     0.1078    -0.4033 C.3     
  15 Si15          -1.8535     1.8300     0.0021 Si      
  16 C16           -2.4261     2.4217     1.6732 C.3     
  17 C17           -2.2589     3.0633    -1.3341 C.3     
  18 H18            3.2669     2.1223    -0.0398 H       
  19 H19            3.3771    -0.3397    -0.0993 H       
  20 H20           -0.0271     3.9472     0.0607 H       
  21 H21            0.3750    -2.5405    -0.0585 H       
  22 H22            3.0935    -2.1041    -1.3760 H       
  23 H23            2.1704    -3.6259    -1.3801 H       
  24 H24            1.5315    -2.1952    -2.2245 H       
  25 H25            2.2403    -3.6752     1.1169 H       
  26 H26            3.1635    -2.1533     1.1210 H       
  27 H27            1.6513    -2.2795     2.0514 H       
  28 H28            2.7812     3.8879     1.2552 H       
  29 H29            1.6613     5.2706     1.3042 H       
  30 H30            1.2604     3.7694     2.1724 H       
  31 H31            2.7331     3.9375    -1.2424 H       
  32 H32            1.1780     3.8543    -2.1044 H       
  33 H33            1.6133     5.3202    -1.1934 H       
  34 H34           -1.2497    -1.6158    -0.5768 H       
  35 H35           -1.4899    -1.0573     1.0810 H       
  36 H36           -2.7234    -0.0085    -1.4706 H       
  37 H37           -3.4242    -0.1206     0.1848 H       
  38 H38           -2.0841     1.7278     2.4411 H       
  39 H39           -2.0144     3.4118     1.8688 H       
  40 H40           -3.5149     2.4716     1.6875 H       
  41 H41           -3.3408     3.1394    -1.4422 H       
  42 H42           -1.8512     4.0377    -1.0650 H       
  43 H43           -1.8218     2.7344    -2.2769 H       
@<TRIPOS>BOND
   1    1    2 ar
   2    1    3 ar
   3    1   15 1
   4    2   13 1
   5    2    6 ar
   6    3    4 ar
   7    3    7 1
   8    4    5 ar
   9    4   18 1
  10    5    6 ar
  11    5   19 1
  12    6    8 1
  13    7   11 1
  14    7   12 1
  15    7   20 1
  16    8    9 1
  17    8   10 1
  18    8   21 1
  19    9   22 1
  20    9   23 1
  21    9   24 1
  22   10   25 1
  23   10   26 1
  24   10   27 1
  25   11   28 1
  26   11   29 1
  27   11   30 1
  28   12   31 1
  29   12   32 1
  30   12   33 1
  31   13   14 1
  32   13   34 1
  33   13   35 1
  34   14   15 1
  35   14   36 1
  36   14   37 1
  37   15   16 1
  38   15   17 1
  39   16   38 1
  40   16   39 1
  41   16   40 1
  42   17   41 1
  43   17   42 1
  44   17   43 1

#	End of record

