#	Name: ASD03330862
#	Creating user name:	WinNT
#	Creation time:	15. 06. 2019 20:38

#	Modifying user name:	WinNT
#	Modification time:	15. 06. 2019 20:38

#	Program:	/corina/corina34_cracker 3.40 0067  02.08.2006

@<TRIPOS>MOLECULE
ASD03330862
  61   63    0    0    0
SMALL
NO_CHARGES


@<TRIPOS>ATOM
   1 N1             0.1371     0.9676    -0.0498 N.pl3   
   2 C2             0.0169    -0.3679     0.1772 C.2     
   3 C3             1.1373    -1.2959     0.5681 C.3     
   4 N4             1.9103    -0.6852     1.6608 N.3     
   5 C5             2.9878     0.1588     1.1408 C.3     
   6 C6             2.5722     0.8326    -0.1638 C.3     
   7 C7             1.3703     1.7479     0.0853 C.3     
   8 C8            -1.0942     1.4334    -0.4093 C.2     
   9 N9            -1.9433     0.4325    -0.3880 N.2     
  10 C10           -1.2892    -0.6936    -0.0269 C.2     
  11 C11           -1.8832    -2.0341     0.1194 C.2     
  12 O12           -1.1873    -2.9747     0.4514 O.2     
  13 N13           -3.1977    -2.2179    -0.1149 N.am    
  14 C14            2.4376    -1.7113     2.5702 C.3     
  15 C15           -5.0222    -3.6498    -0.8289 C.2     
  16 C16           -3.7883    -3.5507     0.0305 C.3     
  17 C17           -4.1663    -3.7840     1.4946 C.3     
  18 C18           -5.2307    -2.7683     1.9146 C.3     
  19 O19           -5.6547    -2.6509    -1.0993 O.2     
  20 N20           -5.4229    -4.8485    -1.2970 N.am    
  21 C21           -6.6800    -4.9614    -2.0408 C.3     
  22 C22           -4.7204    -5.2007     1.6587 C.3     
  23 C23           -2.9260    -3.6164     2.3746 C.3     
  24 C24           -1.4180     2.8318    -0.7632 C.ar    
  25 C25           -2.1928     3.1095    -1.8959 C.ar    
  26 C26           -2.4911     4.4230    -2.2198 C.ar    
  27 C27           -2.0249     5.4552    -1.4277 C.ar    
  28 C28           -1.2579     5.1850    -0.3067 C.ar    
  29 C29           -0.9579     3.8807     0.0327 C.ar    
  30 O30           -2.6499     2.0949    -2.6745 O.3     
  31 Cl31          -0.6775     6.4906     0.6794 Cl      
  32 H32            0.7228    -2.2470     0.9024 H       
  33 H33            1.7885    -1.4626    -0.2900 H       
  34 H34            3.2303     0.9244     1.8778 H       
  35 H35            3.8695    -0.4563     0.9611 H       
  36 H36            3.4041     1.4232    -0.5476 H       
  37 H37            2.3021     0.0708    -0.8951 H       
  38 H38            1.3712     2.5574    -0.6447 H       
  39 H39            1.4307     2.1629     1.0914 H       
  40 H40           -3.7527    -1.4677    -0.3797 H       
  41 H41            3.0324    -2.4278     2.0037 H       
  42 H42            3.0626    -1.2387     3.3279 H       
  43 H43            1.6090    -2.2287     3.0537 H       
  44 H44           -3.0658    -4.3044    -0.2827 H       
  45 H45           -6.1143    -2.8877     1.2877 H       
  46 H46           -5.5000    -2.9345     2.9576 H       
  47 H47           -4.8359    -1.7590     1.7977 H       
  48 H48           -4.8789    -5.6364    -1.1414 H       
  49 H49           -6.8354    -5.9991    -2.3361 H       
  50 H50           -7.5064    -4.6358    -1.4091 H       
  51 H51           -6.6334    -4.3335    -2.9305 H       
  52 H52           -3.9412    -5.9253     1.4223 H       
  53 H53           -5.0505    -5.3448     2.6875 H       
  54 H54           -5.5643    -5.3413     0.9833 H       
  55 H55           -2.5312    -2.6072     2.2577 H       
  56 H56           -3.1953    -3.7827     3.4176 H       
  57 H57           -2.1678    -4.3401     2.0754 H       
  58 H58           -3.0885     4.6408    -3.0928 H       
  59 H59           -2.2597     6.4776    -1.6843 H       
  60 H60           -0.3638     3.6732     0.9105 H       
  61 H61           -3.5156     1.7551    -2.4096 H       
@<TRIPOS>BOND
   1    1    2 1
   2    1    7 1
   3    1    8 1
   4    2    3 1
   5    2   10 2
   6    3    4 1
   7    3   32 1
   8    3   33 1
   9    4    5 1
  10    4   14 1
  11    5    6 1
  12    5   34 1
  13    5   35 1
  14    6    7 1
  15    6   36 1
  16    6   37 1
  17    7   38 1
  18    7   39 1
  19    8    9 2
  20    8   24 1
  21    9   10 1
  22   10   11 1
  23   11   12 2
  24   11   13 am
  25   13   16 1
  26   13   40 1
  27   14   41 1
  28   14   42 1
  29   14   43 1
  30   15   19 2
  31   15   20 am
  32   15   16 1
  33   16   17 1
  34   16   44 1
  35   17   18 1
  36   17   22 1
  37   17   23 1
  38   18   45 1
  39   18   46 1
  40   18   47 1
  41   20   21 1
  42   20   48 1
  43   21   49 1
  44   21   50 1
  45   21   51 1
  46   22   52 1
  47   22   53 1
  48   22   54 1
  49   23   55 1
  50   23   56 1
  51   23   57 1
  52   24   25 ar
  53   24   29 ar
  54   25   26 ar
  55   25   30 1
  56   26   27 ar
  57   26   58 1
  58   27   28 ar
  59   27   59 1
  60   28   29 ar
  61   28   31 1
  62   29   60 1
  63   30   61 1

#	End of record

