#	Name: ASD01881687
#	Creating user name:	WinNT
#	Creation time:	15. 06. 2019 19:43

#	Modifying user name:	WinNT
#	Modification time:	15. 06. 2019 19:43

#	Program:	/corina/corina34_cracker 3.40 0067  02.08.2006

@<TRIPOS>MOLECULE
ASD01881687
  31   33    0    0    0
SMALL
NO_CHARGES


@<TRIPOS>ATOM
   1 C1            -0.0161     1.3337     0.0094 C.2     
   2 N2             0.0021    -0.0041     0.0020 N.am    
   3 C3             1.2613    -0.4841    -0.0126 C.2     
   4 C4             2.1640     0.7337    -0.0147 C.3     
   5 N5             1.2200     1.8645     0.0004 N.am    
   6 O6            -1.0354     1.9955     0.0180 O.2     
   7 O7             1.6013    -1.6477    -0.0215 O.2     
   8 C8            -1.1986    -0.8435     0.0097 C.3     
   9 C9            -1.4008    -1.7981    -1.1687 C.3     
  10 C10           -1.0068    -2.3490     0.2032 C.3     
  11 C11            1.5609     3.2893     0.0041 C.3     
  12 C12            1.6916     3.7708     1.4261 C.ar    
  13 C13            2.9159     3.7131     2.0654 C.ar    
  14 C14            3.0364     4.1551     3.3695 C.ar    
  15 C15            1.9316     4.6553     4.0348 C.ar    
  16 C16            0.7067     4.7128     3.3947 C.ar    
  17 C17            0.5884     4.2755     2.0889 C.ar    
  18 Br18           2.0956     5.2596     5.8191 Br      
  19 H19            2.7924     0.7467     0.8759 H       
  20 H20            2.7753     0.7564    -0.9169 H       
  21 H21           -2.0873    -0.3887     0.4472 H       
  22 H22           -2.4226    -1.9716    -1.5063 H       
  23 H23           -0.6405    -1.8015    -1.9498 H       
  24 H24            0.0127    -2.7150     0.3247 H       
  25 H25           -1.7694    -2.8850     0.7682 H       
  26 H26            2.5060     3.4381    -0.5182 H       
  27 H27            0.7749     3.8522    -0.4994 H       
  28 H28            3.7784     3.3223     1.5460 H       
  29 H29            3.9928     4.1096     3.8690 H       
  30 H30           -0.1562     5.1029     3.9139 H       
  31 H31           -0.3670     4.3242     1.5876 H       
@<TRIPOS>BOND
   1    1    2 am
   2    1    5 am
   3    1    6 2
   4    2    3 am
   5    2    8 1
   6    3    4 1
   7    3    7 2
   8    4    5 1
   9    4   19 1
  10    4   20 1
  11    5   11 1
  12    8    9 1
  13    8   10 1
  14    8   21 1
  15    9   10 1
  16    9   22 1
  17    9   23 1
  18   10   24 1
  19   10   25 1
  20   11   12 1
  21   11   26 1
  22   11   27 1
  23   12   13 ar
  24   12   17 ar
  25   13   14 ar
  26   13   28 1
  27   14   15 ar
  28   14   29 1
  29   15   16 ar
  30   15   18 1
  31   16   17 ar
  32   16   30 1
  33   17   31 1

#	End of record

