#	Name: ASD01810882
#	Creating user name:	WinNT
#	Creation time:	15. 06. 2019 19:25

#	Modifying user name:	WinNT
#	Modification time:	15. 06. 2019 19:25

#	Program:	/corina/corina34_cracker 3.40 0067  02.08.2006

@<TRIPOS>MOLECULE
ASD01810882
  62   67    0    0    0
SMALL
NO_CHARGES


@<TRIPOS>ATOM
   1 C1            -0.0169     1.3943     0.0097 C.ar    
   2 C2             0.0021    -0.0041     0.0020 C.ar    
   3 C3             1.1965    -0.6634    -0.0129 C.ar    
   4 C4             2.3976     0.0385    -0.0202 C.ar    
   5 C5             2.4138     1.4015    -0.0126 C.ar    
   6 C6             1.2039     2.1122     0.0019 C.ar    
   7 C7             1.1893     3.5228     0.0096 C.ar    
   8 C8             0.0230     4.2112     0.0248 C.ar    
   9 C9            -1.2141     3.5483     0.0331 C.ar    
  10 C10           -1.2703     2.1426     0.0317 C.ar    
  11 C11           -3.5794     2.2019     0.0645 C.2     
  12 N12           -2.4657     1.5294     0.0453 N.2     
  13 C13           -2.4847     4.2844     0.0501 C.2     
  14 N14           -3.6263     3.5577     0.0574 N.am    
  15 C15            2.4941     4.2768     0.0012 C.3     
  16 C16            2.9775     4.4285    -1.4181 C.ar    
  17 C17            2.6057     5.5280    -2.1677 C.ar    
  18 N18            3.0222     5.6725    -3.4100 N.ar    
  19 C19            3.8097     4.7750    -3.9880 C.ar    
  20 C20            4.2232     3.6416    -3.2901 C.ar    
  21 C21            3.8052     3.4675    -1.9829 C.ar    
  22 C22            4.2533     4.9790    -5.3886 C.2     
  23 C23            3.9300     6.0344    -6.1920 C.2     
  24 N24            4.5325     5.8409    -7.3813 N.pl3   
  25 N25            5.2476     4.6388    -7.3200 N.2     
  26 C26            5.0902     4.1218    -6.1306 C.2     
  27 C27            4.4527     6.7343    -8.5396 C.3     
  28 C28           -4.9224     4.2403     0.0804 C.3     
  29 C29           -7.0890     4.5453    -1.1260 C.3     
  30 C30           -5.7354     3.8324    -1.1499 C.3     
  31 C31           -5.6835     3.8471     1.3480 C.3     
  32 C32           -7.0371     4.5601     1.3719 C.3     
  33 C33           -7.8501     4.1522     0.1417 C.3     
  34 O34           -4.9242     4.2281     2.4970 O.3     
  35 O35           -2.5101     5.5019     0.0577 O.2     
  36 H36           -0.9242    -0.5594     0.0082 H       
  37 H37            1.2097    -1.7433    -0.0189 H       
  38 H38            3.3311    -0.5045    -0.0317 H       
  39 H39            3.3542     1.9324    -0.0183 H       
  40 H40            0.0454     5.2910     0.0311 H       
  41 H41           -4.5106     1.6549     0.0746 H       
  42 H42            2.3469     5.2626     0.4422 H       
  43 H43            3.2354     3.7265     0.5807 H       
  44 H44            1.9650     6.2792    -1.7299 H       
  45 H45            4.8643     2.9117    -3.7618 H       
  46 H46            4.1097     2.5996    -1.4169 H       
  47 H47            3.3043     6.8726    -5.9230 H       
  48 H48            5.5233     3.1972    -5.7785 H       
  49 H49            5.2598     7.4653    -8.4909 H       
  50 H50            4.5458     6.1508    -9.4556 H       
  51 H51            3.4932     7.2514    -8.5341 H       
  52 H52           -4.7652     5.3188     0.0707 H       
  53 H53           -6.9318     5.6239    -1.1356 H       
  54 H54           -7.6682     4.2548    -2.0024 H       
  55 H55           -5.1932     4.1125    -2.0530 H       
  56 H56           -5.8927     2.7539    -1.1403 H       
  57 H57           -5.8408     2.7686     1.3576 H       
  58 H58           -7.5793     4.2800     2.2751 H       
  59 H59           -6.8799     5.6386     1.3623 H       
  60 H60           -8.8144     4.6601     0.1588 H       
  61 H61           -8.0074     3.0736     0.1513 H       
  62 H62           -5.3473     4.0089     3.3385 H       
@<TRIPOS>BOND
   1    1    2 ar
   2    1    6 ar
   3    1   10 ar
   4    2    3 ar
   5    2   36 1
   6    3    4 ar
   7    3   37 1
   8    4    5 ar
   9    4   38 1
  10    5    6 ar
  11    5   39 1
  12    6    7 ar
  13    7    8 ar
  14    7   15 1
  15    8    9 ar
  16    8   40 1
  17    9   13 1
  18    9   10 ar
  19   10   12 1
  20   11   12 2
  21   11   14 1
  22   11   41 1
  23   13   14 am
  24   13   35 2
  25   14   28 1
  26   15   16 1
  27   15   42 1
  28   15   43 1
  29   16   17 ar
  30   16   21 ar
  31   17   18 ar
  32   17   44 1
  33   18   19 ar
  34   19   20 ar
  35   19   22 1
  36   20   21 ar
  37   20   45 1
  38   21   46 1
  39   22   23 2
  40   22   26 1
  41   23   24 1
  42   23   47 1
  43   24   25 1
  44   24   27 1
  45   25   26 2
  46   26   48 1
  47   27   49 1
  48   27   50 1
  49   27   51 1
  50   28   31 1
  51   28   30 1
  52   28   52 1
  53   29   30 1
  54   29   33 1
  55   29   53 1
  56   29   54 1
  57   30   55 1
  58   30   56 1
  59   31   32 1
  60   31   34 1
  61   31   57 1
  62   32   33 1
  63   32   58 1
  64   32   59 1
  65   33   60 1
  66   33   61 1
  67   34   62 1

#	End of record

