#	Name: ASD00450079
#	Creating user name:	WinNT
#	Creation time:	15. 06. 2019 18:36

#	Modifying user name:	WinNT
#	Modification time:	15. 06. 2019 18:36

#	Program:	/corina/corina34_cracker 3.40 0067  02.08.2006

@<TRIPOS>MOLECULE
ASD00450079
  49   51    0    0    0
SMALL
NO_CHARGES


@<TRIPOS>ATOM
   1 C1            -0.8009     1.4833    -0.4303 C.ar    
   2 C2            -0.5777     0.0991    -0.3683 C.ar    
   3 C3             0.7093    -0.3843    -0.2090 C.ar    
   4 C4             1.7780     0.4928    -0.1101 C.ar    
   5 C5             1.5708     1.8616    -0.1694 C.ar    
   6 C6             0.2878     2.3664    -0.3297 C.ar    
   7 C7            -2.1639     2.0060    -0.6054 C.2     
   8 O8            -2.8519     2.2490     0.3680 O.2     
   9 N9            -2.6512     2.2158    -1.8444 N.am    
  10 N10            0.0804     3.7403    -0.3901 N.pl3   
  11 C11            1.1459     4.5960    -0.6889 C.ar    
  12 C12            1.7128     4.5861    -1.9591 C.ar    
  13 C13            1.6362     5.4613     0.2800 C.ar    
  14 C14            2.6885     6.3052    -0.0178 C.ar    
  15 C15            3.2544     6.2901    -1.2800 C.ar    
  16 C16            2.7660     5.4335    -2.2503 C.ar    
  17 F17            3.0301     0.0099     0.0456 F       
  18 F18            1.2356     3.7495    -2.9065 F       
  19 I19            4.8492     7.5734    -1.7258 I       
  20 F20            2.6202     2.7068    -0.0714 F       
  21 O21           -1.6211    -0.7630    -0.4639 O.3     
  22 C22           -1.3478    -2.0935    -0.5024 C.ar    
  23 C23           -1.2048    -2.8066     0.6775 C.ar    
  24 C24           -0.9261    -4.1659     0.6344 C.ar    
  25 C25           -0.7914    -4.8070    -0.5908 C.ar    
  26 C26           -0.9346    -4.0926    -1.7647 C.ar    
  27 C27           -1.2173    -2.7407    -1.7238 C.ar    
  28 N28           -0.7809    -4.8879     1.8212 N.am    
  29 S29           -1.2450    -6.4762     1.8861 S.o2    
  30 O30           -0.9908    -6.9145     3.2137 O.2     
  31 O31           -2.5270    -6.5448     1.2770 O.2     
  32 N32           -0.2160    -7.3280     0.9074 N.am    
  33 C33           -1.3512    -2.1075     2.0045 C.3     
  34 H34            0.8816    -1.4494    -0.1613 H       
  35 H35           -2.1026     2.0220    -2.6206 H       
  36 H36           -3.5504     2.5606    -1.9599 H       
  37 H37           -0.8031     4.1052    -0.2250 H       
  38 H38            1.1950     5.4748     1.2656 H       
  39 H39            3.0698     6.9782     0.7359 H       
  40 H40            3.2074     5.4267    -3.2359 H       
  41 H41           -0.5742    -5.8643    -0.6256 H       
  42 H42           -0.8295    -4.5926    -2.7161 H       
  43 H43           -1.3287    -2.1850    -2.6431 H       
  44 H44           -0.4081    -4.4590     2.6073 H       
  45 H45            0.4936    -6.8679     0.4324 H       
  46 H46           -0.3229    -8.2871     0.8091 H       
  47 H47           -2.3933    -2.1450     2.3219 H       
  48 H48           -0.7270    -2.6040     2.7475 H       
  49 H49           -1.0392    -1.0680     1.9039 H       
@<TRIPOS>BOND
   1    1    2 ar
   2    1    6 ar
   3    1    7 1
   4    2    3 ar
   5    2   21 1
   6    3    4 ar
   7    3   34 1
   8    4    5 ar
   9    4   17 1
  10    5    6 ar
  11    5   20 1
  12    6   10 1
  13    7    8 2
  14    7    9 am
  15    9   35 1
  16    9   36 1
  17   10   11 1
  18   10   37 1
  19   11   13 ar
  20   11   12 ar
  21   12   16 ar
  22   12   18 1
  23   13   14 ar
  24   13   38 1
  25   14   15 ar
  26   14   39 1
  27   15   16 ar
  28   15   19 1
  29   16   40 1
  30   21   22 1
  31   22   23 ar
  32   22   27 ar
  33   23   24 ar
  34   23   33 1
  35   24   25 ar
  36   24   28 1
  37   25   26 ar
  38   25   41 1
  39   26   27 ar
  40   26   42 1
  41   27   43 1
  42   28   29 am
  43   28   44 1
  44   29   30 2
  45   29   31 2
  46   29   32 am
  47   32   45 1
  48   32   46 1
  49   33   47 1
  50   33   48 1
  51   33   49 1

#	End of record

