#	Name: ASD01940348
#	Creating user name:	WinNT
#	Creation time:	15. 06. 2019 20:12

#	Modifying user name:	WinNT
#	Modification time:	15. 06. 2019 20:12

#	Program:	/corina/corina34_cracker 3.40 0067  02.08.2006

@<TRIPOS>MOLECULE
ASD01940348
  41   43    0    0    0
SMALL
NO_CHARGES


@<TRIPOS>ATOM
   1 C1             1.4416     2.9909     3.4927 C.ar    
   2 C2             2.2327     2.6149     4.5634 C.ar    
   3 C3             3.4787     2.0553     4.3440 C.ar    
   4 C4             3.9378     1.8702     3.0544 C.ar    
   5 C5             3.1474     2.2460     1.9764 C.ar    
   6 C6             1.8947     2.8081     2.1992 C.ar    
   7 N7             3.6098     2.0597     0.6694 N.pl3   
   8 C8             4.8186     1.4096     0.4456 C.ar    
   9 C9             4.8606     0.0232     0.3598 C.ar    
  10 C10            6.0658    -0.6204     0.1374 C.ar    
  11 C11            7.2372     0.1121    -0.0010 C.ar    
  12 C12            7.2122     1.4862     0.0810 C.ar    
  13 C13            6.0021     2.1511     0.2994 C.ar    
  14 C14            5.9696     3.6216     0.3823 C.2     
  15 N15            7.0695     4.3382     0.0770 N.am    
  16 O16            4.9503     4.1889     0.7261 O.2     
  17 C17            7.4640     5.7534     0.1450 C.3     
  18 C18            8.4316     5.4833    -1.0156 C.3     
  19 C19            8.4058     4.0482    -0.4644 C.3     
  20 O20            7.8472     5.6285    -2.3115 O.3     
  21 C21            9.7864     6.1808    -0.8781 C.3     
  22 N22           10.6259     5.8530    -2.0381 N.3     
  23 F23            1.1220     3.1748     1.1534 F       
  24 F24            6.1025    -1.9684     0.0551 F       
  25 F25            3.7252    -0.6966     0.4939 F       
  26 I26            1.5427     2.8943     6.5217 I       
  27 H27            0.4675     3.4235     3.6672 H       
  28 H28            4.0936     1.7629     5.1824 H       
  29 H29            4.9110     1.4338     2.8847 H       
  30 H30            3.0873     2.3839    -0.0807 H       
  31 H31            8.1730    -0.3988    -0.1736 H       
  32 H32            8.1267     2.0504    -0.0271 H       
  33 H33            6.6586     6.4413    -0.1124 H       
  34 H34            7.9656     6.0200     1.0753 H       
  35 H35            9.1557     3.8653     0.3052 H       
  36 H36            8.4028     3.2833    -1.2411 H       
  37 H37            8.4593     5.4577    -3.0404 H       
  38 H38            9.6366     7.2594    -0.8311 H       
  39 H39           10.2784     5.8422     0.0337 H       
  40 H40           10.1629     6.0986    -2.9004 H       
  41 H41           11.5269     6.3021    -1.9709 H       
@<TRIPOS>BOND
   1    1    2 ar
   2    1    6 ar
   3    1   27 1
   4    2    3 ar
   5    2   26 1
   6    3    4 ar
   7    3   28 1
   8    4    5 ar
   9    4   29 1
  10    5    6 ar
  11    5    7 1
  12    6   23 1
  13    7    8 1
  14    7   30 1
  15    8    9 ar
  16    8   13 ar
  17    9   10 ar
  18    9   25 1
  19   10   11 ar
  20   10   24 1
  21   11   12 ar
  22   11   31 1
  23   12   13 ar
  24   12   32 1
  25   13   14 1
  26   14   15 am
  27   14   16 2
  28   15   17 1
  29   15   19 1
  30   17   18 1
  31   17   33 1
  32   17   34 1
  33   18   19 1
  34   18   20 1
  35   18   21 1
  36   19   35 1
  37   19   36 1
  38   20   37 1
  39   21   22 1
  40   21   38 1
  41   21   39 1
  42   22   40 1
  43   22   41 1

#	End of record

