#	Name: ASD03080139
#	Creating user name:	WinNT
#	Creation time:	15. 06. 2019 20:26

#	Modifying user name:	WinNT
#	Modification time:	15. 06. 2019 20:26

#	Program:	/corina/corina34_cracker 3.40 0067  02.08.2006

@<TRIPOS>MOLECULE
ASD03080139
  17   18    0    0    0
SMALL
NO_CHARGES


@<TRIPOS>ATOM
   1 C1            -0.0160     1.3256     0.0093 C.ar    
   2 N2             0.0021    -0.0041     0.0020 N.ar    
   3 C3             1.1891     2.0475     0.0017 C.ar    
   4 C4             2.3919     1.3599    -0.0135 C.ar    
   5 C5             2.3562    -0.0264    -0.0205 C.ar    
   6 C6             1.1345    -0.6765    -0.0124 C.ar    
   7 N7            -1.0159     2.2455     0.0183 N.2     
   8 C8            -0.4873     3.4450     0.0222 C.2     
   9 O9             0.8547     3.3572     0.0115 O.3     
  10 S10           -1.4010     4.9515     0.0339 S.3     
  11 C11            1.0992    -2.1830    -0.0201 C.3     
  12 H12            3.3329     1.8899    -0.0199 H       
  13 H13            3.2747    -0.5943    -0.0327 H       
  14 H14           -1.5214     5.1540     1.4241 H       
  15 H15            1.1005    -2.5518     1.0056 H       
  16 H16            0.1961    -2.5227    -0.5272 H       
  17 H17            1.9755    -2.5643    -0.5444 H       
@<TRIPOS>BOND
   1    1    2 ar
   2    1    3 ar
   3    1    7 1
   4    2    6 ar
   5    3    4 ar
   6    3    9 1
   7    4    5 ar
   8    4   12 1
   9    5    6 ar
  10    5   13 1
  11    6   11 1
  12    7    8 2
  13    8    9 1
  14    8   10 1
  15   10   14 1
  16   11   15 1
  17   11   16 1
  18   11   17 1

#	End of record

