#	Name: ASD01812697
#	Creating user name:	WinNT
#	Creation time:	15. 06. 2019 19:29

#	Modifying user name:	WinNT
#	Modification time:	15. 06. 2019 19:29

#	Program:	/corina/corina34_cracker 3.40 0067  02.08.2006

@<TRIPOS>MOLECULE
ASD01812697
  58   62    0    0    0
SMALL
NO_CHARGES


@<TRIPOS>ATOM
   1 O1            -0.0163     1.3523     0.0095 O.3     
   2 C2             0.0265    -0.0035    -0.0012 C.ar    
   3 C3             1.2407    -0.6610    -0.1229 C.ar    
   4 C4             1.2864    -2.0424    -0.1335 C.ar    
   5 C5             0.1175    -2.7818    -0.0230 C.ar    
   6 C6            -1.0929    -2.1432     0.0982 C.ar    
   7 C7            -1.1568    -0.7466     0.1165 C.ar    
   8 C8            -2.5121    -2.6357     0.2343 C.3     
   9 N9            -3.3545    -1.4374     0.3223 N.am    
  10 C10           -2.5666    -0.3500     0.2619 C.2     
  11 C11           -4.8126    -1.4279     0.4642 C.3     
  12 O12           -2.9636     0.7984     0.3080 O.2     
  13 C13           -5.1749    -1.4317     1.9270 C.ar    
  14 C14           -5.3323    -0.2342     2.6011 C.ar    
  15 C15           -5.6646    -0.2320     3.9408 C.ar    
  16 C16           -5.8415    -1.4387     4.6139 C.ar    
  17 C17           -5.6818    -2.6419     3.9302 C.ar    
  18 C18           -5.3546    -2.6326     2.5893 C.ar    
  19 C19            1.2358     2.0409     0.0120 C.3     
  20 C20            1.0539     3.4279     0.6319 C.3     
  21 C21            2.3945     4.1651     0.6346 C.3     
  22 C22            2.8993     4.3109    -0.8023 C.3     
  23 C23            3.0813     2.9240    -1.4222 C.3     
  24 C24            1.7406     2.1867    -1.4249 C.3     
  25 O25            0.5824     3.2917     1.9740 O.3     
  26 C26           -6.1985    -1.4425     6.0551 C.2     
  27 C27           -6.3907    -0.3084     6.8679 C.2     
  28 N28           -6.6926    -0.7180     8.0714 N.2     
  29 N29           -6.7050    -2.1181     8.0748 N.pl3   
  30 C30           -6.4058    -2.5451     6.8314 C.2     
  31 C31           -6.9978    -2.9717     9.2289 C.3     
  32 Br32           2.9488    -2.9283    -0.3000 Br      
  33 H33            2.1544    -0.0918    -0.2100 H       
  34 H34            0.1592    -3.8609    -0.0326 H       
  35 H35           -2.7895    -3.2255    -0.6393 H       
  36 H36           -2.6159    -3.2341     1.1395 H       
  37 H37           -5.2178    -0.5330    -0.0081 H       
  38 H38           -5.2301    -2.3129    -0.0159 H       
  39 H39           -5.1946     0.7008     2.0784 H       
  40 H40           -5.7869     0.7035     4.4663 H       
  41 H41           -5.8178    -3.5802     4.4474 H       
  42 H42           -5.2345    -3.5648     2.0573 H       
  43 H43            1.9609     1.4742     0.5961 H       
  44 H44            0.3288     3.9946     0.0478 H       
  45 H45            2.2649     5.1532     1.0762 H       
  46 H46            3.1196     3.5984     1.2187 H       
  47 H47            2.1742     4.8776    -1.3864 H       
  48 H48            3.8544     4.8361    -0.8004 H       
  49 H49            3.4409     3.0278    -2.4459 H       
  50 H50            3.8064     2.3573    -0.8381 H       
  51 H51            1.8702     1.1986    -1.8665 H       
  52 H52            1.0155     2.7534    -2.0090 H       
  53 H53            0.4443     4.1334     2.4296 H       
  54 H54           -6.3035     0.7206     6.5515 H       
  55 H55           -6.3395    -3.5737     6.5090 H       
  56 H56           -8.0679    -3.1755     9.2678 H       
  57 H57           -6.4523    -3.9106     9.1341 H       
  58 H58           -6.6911    -2.4640    10.1434 H       
@<TRIPOS>BOND
   1    1    2 1
   2    1   19 1
   3    2    3 ar
   4    2    7 ar
   5    3    4 ar
   6    3   33 1
   7    4    5 ar
   8    4   32 1
   9    5    6 ar
  10    5   34 1
  11    6    8 1
  12    6    7 ar
  13    7   10 1
  14    8    9 1
  15    8   35 1
  16    8   36 1
  17    9   10 am
  18    9   11 1
  19   10   12 2
  20   11   13 1
  21   11   37 1
  22   11   38 1
  23   13   14 ar
  24   13   18 ar
  25   14   15 ar
  26   14   39 1
  27   15   16 ar
  28   15   40 1
  29   16   17 ar
  30   16   26 1
  31   17   18 ar
  32   17   41 1
  33   18   42 1
  34   19   20 1
  35   19   24 1
  36   19   43 1
  37   20   21 1
  38   20   25 1
  39   20   44 1
  40   21   22 1
  41   21   45 1
  42   21   46 1
  43   22   23 1
  44   22   47 1
  45   22   48 1
  46   23   24 1
  47   23   49 1
  48   23   50 1
  49   24   51 1
  50   24   52 1
  51   25   53 1
  52   26   27 1
  53   26   30 2
  54   27   28 2
  55   27   54 1
  56   28   29 1
  57   29   30 1
  58   29   31 1
  59   30   55 1
  60   31   56 1
  61   31   57 1
  62   31   58 1

#	End of record

