#	Name: ASD08170181
#	Creating user name:	WinNT
#	Creation time:	15. 06. 2019 21:17

#	Modifying user name:	WinNT
#	Modification time:	15. 06. 2019 21:17

#	Program:	/corina/corina34_cracker 3.40 0067  02.08.2006

@<TRIPOS>MOLECULE
ASD08170181
  64   67    0    0    0
SMALL
NO_CHARGES


@<TRIPOS>ATOM
   1 C1             1.9723     1.3478     0.2844 C.ar    
   2 C2             1.5310    -0.0917     0.2197 C.3     
   3 C3             1.4819    -0.6652     1.6124 C.2     
   4 N4             1.1109    -1.9471     1.8007 N.am    
   5 O5             1.7763     0.0269     2.5639 O.2     
   6 C6             1.0656    -2.4763     3.0860 C.2     
   7 S7             0.6234    -4.0813     3.4899 S.3     
   8 N8             1.3571    -1.8373     4.1786 N.2     
   9 N9             1.2645    -2.4675     5.2686 N.2     
  10 C10            0.8855    -3.7037     5.1929 C.2     
  11 C11            0.7055    -4.6507     6.3513 C.3     
  12 C12           -0.7331    -4.5611     6.8645 C.3     
  13 C13           -0.9159    -5.5225     8.0405 C.3     
  14 C14           -2.3545    -5.4329     8.5537 C.3     
  15 C15           -2.5345    -6.3799     9.7121 C.2     
  16 N16           -2.3474    -6.1010    10.9630 N.2     
  17 S17           -3.0453    -8.0651     9.6085 S.3     
  18 C18           -2.9308    -8.1844    11.3136 C.2     
  19 N19           -2.5519    -7.0356    11.7868 N.2     
  20 N20           -3.2037    -9.3212    12.0669 N.am    
  21 C21           -3.0757    -9.2876    13.4081 C.2     
  22 C22           -3.3714   -10.5194    14.2243 C.3     
  23 O23           -2.7225    -8.2660    13.9582 O.2     
  24 C24            3.3163     1.6626     0.2121 C.ar    
  25 C25            3.7211     2.9830     0.2715 C.ar    
  26 C26            2.7818     3.9887     0.4028 C.ar    
  27 C27            1.4377     3.6739     0.4742 C.ar    
  28 C28            1.0326     2.3538     0.4104 C.ar    
  29 C29           -3.1531   -10.2187    15.6848 C.ar    
  30 C30           -1.7050   -10.1419    17.5902 C.ar    
  31 C31           -1.9077   -10.4169    16.2516 C.ar    
  32 C32           -4.1972    -9.7396    16.4543 C.ar    
  33 C33           -3.9996    -9.4627    17.7932 C.ar    
  34 C34           -2.7522    -9.6657    18.3656 C.ar    
  35 O35           -2.5555    -9.3948    19.6829 O.3     
  36 C36           -3.0339   -10.2854    20.5665 C.2     
  37 C37           -2.9572    -9.9971    22.0436 C.3     
  38 O38           -3.5260   -11.3180    20.1772 O.2     
  39 H39            0.5404    -0.1481    -0.2316 H       
  40 H40            2.2379    -0.6616    -0.3832 H       
  41 H41            0.8754    -2.5006     1.0397 H       
  42 H42            0.9114    -5.6695     6.0231 H       
  43 H43            1.3943    -4.3807     7.1518 H       
  44 H44           -0.9389    -3.5423     7.1927 H       
  45 H45           -1.4219    -4.8311     6.0640 H       
  46 H46           -0.7100    -6.5413     7.7123 H       
  47 H47           -0.2271    -5.2525     8.8410 H       
  48 H48           -2.5603    -4.4141     8.8819 H       
  49 H49           -3.0432    -5.7029     7.7532 H       
  50 H50           -3.4862   -10.1382    11.6269 H       
  51 H51           -4.4071   -10.8201    14.0661 H       
  52 H52           -2.7075   -11.3273    13.9166 H       
  53 H53            4.0502     0.8769     0.1095 H       
  54 H54            4.7713     3.2289     0.2158 H       
  55 H55            3.0981     5.0203     0.4500 H       
  56 H56            0.7038     4.4596     0.5772 H       
  57 H57           -0.0176     2.1079     0.4662 H       
  58 H58           -0.7322   -10.2976    18.0326 H       
  59 H59           -1.0927   -10.7873    15.6475 H       
  60 H60           -5.1679    -9.5814    16.0082 H       
  61 H61           -4.8153    -9.0882    18.3938 H       
  62 H62           -2.4857    -9.0270    22.2005 H       
  63 H63           -3.9628    -9.9845    22.4641 H       
  64 H64           -2.3677   -10.7713    22.5348 H       
@<TRIPOS>BOND
   1    1    2 1
   2    1   24 ar
   3    1   28 ar
   4    2    3 1
   5    2   39 1
   6    2   40 1
   7    3    4 am
   8    3    5 2
   9    4    6 1
  10    4   41 1
  11    6    8 2
  12    6    7 1
  13    7   10 1
  14    8    9 1
  15    9   10 2
  16   10   11 1
  17   11   12 1
  18   11   42 1
  19   11   43 1
  20   12   13 1
  21   12   44 1
  22   12   45 1
  23   13   14 1
  24   13   46 1
  25   13   47 1
  26   14   15 1
  27   14   48 1
  28   14   49 1
  29   15   17 1
  30   15   16 2
  31   16   19 1
  32   17   18 1
  33   18   19 2
  34   18   20 1
  35   20   21 am
  36   20   50 1
  37   21   22 1
  38   21   23 2
  39   22   29 1
  40   22   51 1
  41   22   52 1
  42   24   25 ar
  43   24   53 1
  44   25   26 ar
  45   25   54 1
  46   26   27 ar
  47   26   55 1
  48   27   28 ar
  49   27   56 1
  50   28   57 1
  51   29   32 ar
  52   29   31 ar
  53   30   31 ar
  54   30   34 ar
  55   30   58 1
  56   31   59 1
  57   32   33 ar
  58   32   60 1
  59   33   34 ar
  60   33   61 1
  61   34   35 1
  62   35   36 1
  63   36   37 1
  64   36   38 2
  65   37   62 1
  66   37   63 1
  67   37   64 1

#	End of record

