#	Name: ASD03331107
#	Creating user name:	WinNT
#	Creation time:	15. 06. 2019 20:38

#	Modifying user name:	WinNT
#	Modification time:	15. 06. 2019 20:38

#	Program:	/corina/corina34_cracker 3.40 0067  02.08.2006

@<TRIPOS>MOLECULE
ASD03331107
  67   70    0    0    0
SMALL
NO_CHARGES


@<TRIPOS>ATOM
   1 N1             0.0565     1.2927     0.7909 N.pl3   
   2 C2             0.0870    -0.0661     0.8403 C.2     
   3 C3             1.3299    -0.9171     0.8272 C.3     
   4 N4             2.2962    -0.3740     1.7946 N.3     
   5 C5             3.1577     0.6344     1.1745 C.3     
   6 C6             2.3979     1.4222     0.1111 C.3     
   7 C7             1.2291     2.1712     0.7570 C.3     
   8 C8            -1.2543     1.6723     0.7913 C.2     
   9 N9            -2.0021     0.5955     0.8565 N.2     
  10 C10           -1.2043    -0.4947     0.8910 C.2     
  11 C11           -1.6518    -1.8964     0.9687 C.2     
  12 O12           -0.8333    -2.7956     0.9927 O.2     
  13 N13           -2.9682    -2.1820     1.0131 N.am    
  14 C14            3.0948    -1.4480     2.4004 C.3     
  15 C15            4.1542    -0.8386     3.3208 C.3     
  16 C16           -1.7494     3.0642     0.7291 C.ar    
  17 C17           -2.8094     3.3945    -0.1202 C.ar    
  18 C18           -3.2674     4.6969    -0.1731 C.ar    
  19 C19           -2.6777     5.6730     0.6136 C.ar    
  20 C20           -1.6262     5.3496     1.4566 C.ar    
  21 C21           -1.1642     4.0517     1.5221 C.ar    
  22 F22           -3.1291     6.9451     0.5584 F       
  23 F23           -3.3842     2.4428    -0.8877 F       
  24 C24           -4.8062    -3.6902     0.5271 C.2     
  25 C25           -3.4131    -3.5757     1.0904 C.3     
  26 C26           -3.4148    -4.0303     2.5513 C.3     
  27 C27           -4.0025    -5.4397     2.6462 C.3     
  28 O28           -5.5757    -2.7572     0.6180 O.2     
  29 C29           -1.9807    -4.0388     3.0844 C.3     
  30 C30           -4.2629    -3.0670     3.3842 C.3     
  31 N31           -5.1970    -4.8295    -0.0778 N.am    
  32 C32           -6.3905    -5.2866    -0.8054 C.3     
  33 C33           -6.0478    -6.7153    -0.3610 C.3     
  34 C34           -4.6148    -6.1606    -0.3063 C.3     
  35 F35           -6.5774    -7.0714     0.8839 F       
  36 F36           -6.2468    -7.6864    -1.3482 F       
  37 H37            1.0740    -1.9401     1.1030 H       
  38 H38            1.7682    -0.9064    -0.1707 H       
  39 H39            3.5148     1.3212     1.9420 H       
  40 H40            4.0120     0.1401     0.7119 H       
  41 H41            3.0715     2.1383    -0.3596 H       
  42 H42            2.0153     0.7356    -0.6441 H       
  43 H43            1.0000     3.0624     0.1728 H       
  44 H44            1.4981     2.4594     1.7732 H       
  45 H45           -3.6210    -1.4649     0.9939 H       
  46 H46            2.4434    -2.1026     2.9796 H       
  47 H47            3.5838    -2.0243     1.6151 H       
  48 H48            3.6742    -0.1677     4.0332 H       
  49 H49            4.6678    -1.6343     3.8604 H       
  50 H50            4.8755    -0.2797     2.7246 H       
  51 H51           -4.0860     4.9544    -0.8288 H       
  52 H52           -1.1704     6.1150     2.0672 H       
  53 H53           -0.3479     3.8009     2.1833 H       
  54 H54           -2.7354    -4.2059     0.5145 H       
  55 H55           -3.3785    -6.1324     2.0814 H       
  56 H56           -4.0361    -5.7498     3.6906 H       
  57 H57           -5.0116    -5.4411     2.2341 H       
  58 H58           -1.5620    -3.0347     3.0168 H       
  59 H59           -1.9819    -4.3626     4.1252 H       
  60 H60           -1.3765    -4.7250     2.4910 H       
  61 H61           -5.2845    -3.0609     3.0044 H       
  62 H62           -4.2640    -3.3908     4.4250 H       
  63 H63           -3.8442    -2.0629     3.3166 H       
  64 H64           -7.3244    -4.9135    -0.3850 H       
  65 H65           -6.3244    -5.1397    -1.8834 H       
  66 H66           -4.0806    -6.2441    -1.2527 H       
  67 H67           -4.0359    -6.5322     0.5393 H       
@<TRIPOS>BOND
   1    1    2 1
   2    1    7 1
   3    1    8 1
   4    2    3 1
   5    2   10 2
   6    3    4 1
   7    3   37 1
   8    3   38 1
   9    4    5 1
  10    4   14 1
  11    5    6 1
  12    5   39 1
  13    5   40 1
  14    6    7 1
  15    6   41 1
  16    6   42 1
  17    7   43 1
  18    7   44 1
  19    8    9 2
  20    8   16 1
  21    9   10 1
  22   10   11 1
  23   11   12 2
  24   11   13 am
  25   13   25 1
  26   13   45 1
  27   14   15 1
  28   14   46 1
  29   14   47 1
  30   15   48 1
  31   15   49 1
  32   15   50 1
  33   16   17 ar
  34   16   21 ar
  35   17   18 ar
  36   17   23 1
  37   18   19 ar
  38   18   51 1
  39   19   20 ar
  40   19   22 1
  41   20   21 ar
  42   20   52 1
  43   21   53 1
  44   24   28 2
  45   24   31 am
  46   24   25 1
  47   25   26 1
  48   25   54 1
  49   26   27 1
  50   26   29 1
  51   26   30 1
  52   27   55 1
  53   27   56 1
  54   27   57 1
  55   29   58 1
  56   29   59 1
  57   29   60 1
  58   30   61 1
  59   30   62 1
  60   30   63 1
  61   31   32 1
  62   31   34 1
  63   32   33 1
  64   32   64 1
  65   32   65 1
  66   33   34 1
  67   33   35 1
  68   33   36 1
  69   34   66 1
  70   34   67 1

#	End of record

