#	Name: ASD08150344
#	Creating user name:	WinNT
#	Creation time:	15. 06. 2019 21:15

#	Modifying user name:	WinNT
#	Modification time:	15. 06. 2019 21:15

#	Program:	/corina/corina34_cracker 3.40 0067  02.08.2006

@<TRIPOS>MOLECULE
ASD08150344
  66   72    0    0    0
SMALL
NO_CHARGES


@<TRIPOS>ATOM
   1 N1            -0.2343     0.9295    -1.9991 N.am    
   2 C2            -0.1353    -0.3106    -2.5160 C.2     
   3 C3             1.0901    -1.0069    -2.4971 C.2     
   4 C4             2.1938    -0.4327    -1.9540 C.2     
   5 C5             2.0932     0.8719    -1.4093 C.ar    
   6 C6             3.2069     1.5134    -0.8346 C.ar    
   7 N7             3.1113     2.7173    -0.3332 N.ar    
   8 C8             1.9606     3.4066    -0.3354 C.ar    
   9 C9             0.7881     2.8390    -0.8933 C.ar    
  10 C10            0.8579     1.5374    -1.4442 C.ar    
  11 C11           -0.4062     3.5641    -0.8908 C.ar    
  12 C12           -0.4306     4.8394    -0.3388 C.ar    
  13 C13            0.7374     5.3942     0.2118 C.ar    
  14 C14            1.9045     4.6983     0.2154 C.ar    
  15 O15           -1.1192    -0.8380    -3.0065 O.2     
  16 C16           -1.6847     5.6122    -0.3312 C.2     
  17 C17           -1.4624     1.6029    -2.0354 C.ar    
  18 C18           -2.3745     1.4401    -1.0004 C.ar    
  19 C19           -3.5844     2.1030    -1.0362 C.ar    
  20 C20           -3.8900     2.9335    -2.1073 C.ar    
  21 C21           -2.9777     3.0965    -3.1419 C.ar    
  22 C22           -1.7653     2.4374    -3.1032 C.ar    
  23 N23           -5.1158     3.6047    -2.1439 N.3     
  24 C24           -2.1183     6.6107    -1.3789 C.3     
  25 C25           -5.0325     4.8922    -1.4403 C.3     
  26 C26           -6.3673     5.6294    -1.5712 C.3     
  27 N27           -7.4411     4.7958    -1.0127 N.3     
  28 C28           -7.5244     3.5083    -1.7164 C.3     
  29 C29           -6.1895     2.7711    -1.5855 C.3     
  30 C30           -3.4616     7.1224    -0.9180 C.ar    
  31 C31           -3.7478     6.4640     0.2822 C.ar    
  32 C32           -2.6427     5.5484     0.6026 C.2     
  33 C33           -4.3465     8.0359    -1.4419 C.ar    
  34 C34           -5.5317     8.3108    -0.7816 C.ar    
  35 C35           -5.8301     7.6658     0.4111 C.ar    
  36 C36           -4.9463     6.7449     0.9458 C.ar    
  37 O37           -6.9949     7.9395     1.0558 O.3     
  38 C38           -3.3091     3.9969    -4.3040 C.3     
  39 F39           -2.2949     3.9119    -5.2639 F       
  40 F40           -4.5235     3.5972    -4.8721 F       
  41 F41           -3.4167     5.3175    -3.8549 F       
  42 H42            1.1511    -2.0006    -2.9157 H       
  43 H43            3.1348    -0.9624    -1.9369 H       
  44 H44            4.1575     1.0017    -0.8071 H       
  45 H45           -1.3031     3.1372    -1.3147 H       
  46 H46            0.7069     6.3862     0.6377 H       
  47 H47            2.7926     5.1397     0.6430 H       
  48 H48           -2.1369     0.7945    -0.1678 H       
  49 H49           -4.2938     1.9759    -0.2318 H       
  50 H50           -1.0543     2.5672    -3.9057 H       
  51 H51           -1.4025     7.4305    -1.4376 H       
  52 H52           -2.2135     6.1223    -2.3487 H       
  53 H53           -4.8154     4.7173    -0.3865 H       
  54 H54           -4.2388     5.4962    -1.8800 H       
  55 H55           -6.3174     6.5716    -1.0256 H       
  56 H56           -6.5713     5.8283    -2.6233 H       
  57 H57           -7.3137     4.6584    -0.0213 H       
  58 H58           -8.3181     2.9043    -1.2767 H       
  59 H59           -7.7415     3.6832    -2.7701 H       
  60 H60           -6.2395     1.8288    -2.1311 H       
  61 H61           -5.9856     2.5722    -0.5334 H       
  62 H62           -2.6053     4.9150     1.4766 H       
  63 H63           -4.1162     8.5395    -2.3692 H       
  64 H64           -6.2251     9.0284    -1.1947 H       
  65 H65           -5.1814     6.2445     1.8736 H       
  66 H66           -7.7327     7.3726     0.7926 H       
@<TRIPOS>BOND
   1    1    2 am
   2    1   10 1
   3    1   17 1
   4    2    3 1
   5    2   15 2
   6    3    4 2
   7    3   42 1
   8    4    5 1
   9    4   43 1
  10    5    6 ar
  11    5   10 ar
  12    6    7 ar
  13    6   44 1
  14    7    8 ar
  15    8    9 ar
  16    8   14 ar
  17    9   10 ar
  18    9   11 ar
  19   11   12 ar
  20   11   45 1
  21   12   13 ar
  22   12   16 1
  23   13   14 ar
  24   13   46 1
  25   14   47 1
  26   16   24 1
  27   16   32 2
  28   17   18 ar
  29   17   22 ar
  30   18   19 ar
  31   18   48 1
  32   19   20 ar
  33   19   49 1
  34   20   21 ar
  35   20   23 1
  36   21   22 ar
  37   21   38 1
  38   22   50 1
  39   23   25 1
  40   23   29 1
  41   24   30 1
  42   24   51 1
  43   24   52 1
  44   25   26 1
  45   25   53 1
  46   25   54 1
  47   26   27 1
  48   26   55 1
  49   26   56 1
  50   27   28 1
  51   27   57 1
  52   28   29 1
  53   28   58 1
  54   28   59 1
  55   29   60 1
  56   29   61 1
  57   30   31 ar
  58   30   33 ar
  59   31   32 1
  60   31   36 ar
  61   32   62 1
  62   33   34 ar
  63   33   63 1
  64   34   35 ar
  65   34   64 1
  66   35   36 ar
  67   35   37 1
  68   36   65 1
  69   37   66 1
  70   38   39 1
  71   38   40 1
  72   38   41 1

#	End of record

