#	Name: ASD01350022
#	Creating user name:	WinNT
#	Creation time:	15. 06. 2019 19:16

#	Modifying user name:	WinNT
#	Modification time:	15. 06. 2019 19:16

#	Program:	/corina/corina34_cracker 3.40 0067  02.08.2006

@<TRIPOS>MOLECULE
ASD01350022
  66   70    0    0    0
SMALL
NO_CHARGES


@<TRIPOS>ATOM
   1 C1             1.2273    -0.4915     2.0209 C.3     
   2 C2             2.5207     0.2158     2.3397 C.3     
   3 C3             2.4161     1.7014     2.3714 C.ar    
   4 C4             1.1629     2.3014     2.4426 C.ar    
   5 N5             0.0132     1.5131     2.3811 N.3     
   6 C6            -0.5591     1.5957     1.0409 C.3     
   7 C7            -0.0636     0.5147     0.1366 C.ar    
   8 C8             0.8378    -0.4526     0.5755 C.ar    
   9 C9             3.5499     2.4917     2.3411 C.ar    
  10 C10            3.4418     3.8673     2.4171 C.ar    
  11 C11            2.1983     4.4625     2.5280 C.ar    
  12 C12            1.0590     3.6823     2.5411 C.ar    
  13 C13           -0.5029     0.4731    -1.1776 C.ar    
  14 C14           -0.0244    -0.4809    -2.0511 C.ar    
  15 C15            0.9085    -1.4070    -1.6223 C.ar    
  16 C16            1.3374    -1.3869    -0.3095 C.ar    
  17 C17           -0.9638     1.9268     3.3971 C.3     
  18 C18           -0.3966     1.6529     4.7914 C.3     
  19 C19           -1.3607     2.1933     5.8494 C.3     
  20 N20           -0.8161     1.9303     7.1881 N.3     
  21 C21           -1.5878     2.6371     8.2184 C.3     
  22 C22           -0.9086     2.4592     9.5782 C.3     
  23 C23           -0.8255     0.9667     9.9103 C.3     
  24 C24           -0.0589     0.2462     8.7978 C.3     
  25 C25           -0.7627     0.4883     7.4606 C.3     
  26 C26           -0.1040     0.7817    11.2204 C.ar    
  27 O27           -2.1443     0.4254    10.0094 O.3     
  28 C28           -0.4109    -0.2943    12.0322 C.ar    
  29 C29            0.2505    -0.4645    13.2338 C.ar    
  30 C30            1.2198     0.4423    13.6242 C.ar    
  31 C31            1.5264     1.5190    12.8113 C.ar    
  32 C32            0.8684     1.6850    11.6072 C.ar    
  33 Cl33           2.0504     0.2295    15.1336 Cl      
  34 H34            1.3193    -1.5339     2.3259 H       
  35 H35            0.4298    -0.0334     2.6059 H       
  36 H36            2.8720    -0.1273     3.3128 H       
  37 H37            3.2615    -0.0631     1.5903 H       
  38 H38           -1.6440     1.5222     1.1161 H       
  39 H39           -0.3029     2.5624     0.6075 H       
  40 H40            4.5238     2.0324     2.2582 H       
  41 H41            4.3312     4.4795     2.3902 H       
  42 H42            2.1183     5.5369     2.6037 H       
  43 H43            0.0876     4.1460     2.6285 H       
  44 H44           -1.2282     1.1958    -1.5212 H       
  45 H45           -0.3791    -0.5049    -3.0710 H       
  46 H46            1.3002    -2.1416    -2.3103 H       
  47 H47            2.0681    -2.1075     0.0270 H       
  48 H48           -1.1691     2.9920     3.2912 H       
  49 H49           -1.8875     1.3637     3.2635 H       
  50 H50           -0.2719     0.5787     4.9283 H       
  51 H51            0.5696     2.1468     4.8941 H       
  52 H52           -1.4854     3.2675     5.7125 H       
  53 H53           -2.3269     1.6994     5.7467 H       
  54 H54           -1.6356     3.6979     7.9724 H       
  55 H55           -2.5973     2.2283     8.2604 H       
  56 H56            0.0961     2.8802     9.5410 H       
  57 H57           -1.4900     2.9708    10.3451 H       
  58 H58            0.9592     0.6324     8.7483 H       
  59 H59           -0.0333    -0.8232     9.0071 H       
  60 H60           -1.7761     0.0896     7.5061 H       
  61 H61           -0.2113    -0.0116     6.6642 H       
  62 H62           -2.1673    -0.5185    10.2182 H       
  63 H63           -1.1678    -1.0019    11.7276 H       
  64 H64            0.0104    -1.3050    13.8681 H       
  65 H65            2.2830     2.2272    13.1154 H       
  66 H66            1.1077     2.5255    10.9725 H       
@<TRIPOS>BOND
   1    1    2 1
   2    1    8 1
   3    1   34 1
   4    1   35 1
   5    2    3 1
   6    2   36 1
   7    2   37 1
   8    3    4 ar
   9    3    9 ar
  10    4    5 1
  11    4   12 ar
  12    5    6 1
  13    5   17 1
  14    6    7 1
  15    6   38 1
  16    6   39 1
  17    7    8 ar
  18    7   13 ar
  19    8   16 ar
  20    9   10 ar
  21    9   40 1
  22   10   11 ar
  23   10   41 1
  24   11   12 ar
  25   11   42 1
  26   12   43 1
  27   13   14 ar
  28   13   44 1
  29   14   15 ar
  30   14   45 1
  31   15   16 ar
  32   15   46 1
  33   16   47 1
  34   17   18 1
  35   17   48 1
  36   17   49 1
  37   18   19 1
  38   18   50 1
  39   18   51 1
  40   19   20 1
  41   19   52 1
  42   19   53 1
  43   20   21 1
  44   20   25 1
  45   21   22 1
  46   21   54 1
  47   21   55 1
  48   22   23 1
  49   22   56 1
  50   22   57 1
  51   23   24 1
  52   23   26 1
  53   23   27 1
  54   24   25 1
  55   24   58 1
  56   24   59 1
  57   25   60 1
  58   25   61 1
  59   26   28 ar
  60   26   32 ar
  61   27   62 1
  62   28   29 ar
  63   28   63 1
  64   29   30 ar
  65   29   64 1
  66   30   31 ar
  67   30   33 1
  68   31   32 ar
  69   31   65 1
  70   32   66 1

#	End of record

