#	Name: ASD04590380
#	Creating user name:	WinNT
#	Creation time:	15. 06. 2019 20:50

#	Modifying user name:	WinNT
#	Modification time:	15. 06. 2019 20:50

#	Program:	/corina/corina34_cracker 3.40 0067  02.08.2006

@<TRIPOS>MOLECULE
ASD04590380
  39   43    0    0    0
SMALL
NO_CHARGES


@<TRIPOS>ATOM
   1 C1            -0.0169     1.3940     0.0097 C.ar    
   2 C2             0.0021    -0.0041     0.0020 C.ar    
   3 C3            -2.4024    -0.0368     0.0237 C.ar    
   4 C4            -2.4152     1.3684     0.0223 C.ar    
   5 C5            -1.2201     2.0740     0.0197 C.ar    
   6 N6            -3.6943    -0.4500     0.0264 N.2     
   7 C7            -4.4903     0.5915     0.0265 C.2     
   8 N8            -3.7473     1.7421     0.0240 N.pl3   
   9 C9            -5.9667     0.5330     0.0289 C.2     
  10 C10           -6.7520    -0.6429     0.0320 C.2     
  11 C11           -8.0550    -0.2696     0.0340 C.2     
  12 N12           -8.0993     1.0886     0.0323 N.pl3   
  13 N13           -6.7834     1.5682     0.0344 N.2     
  14 N14           -6.2685    -1.9614     0.0329 N.am    
  15 C15           -7.1323    -2.9960     0.0360 C.2     
  16 O16           -8.3304    -2.7877     0.0380 O.2     
  17 C17           -6.6243    -4.3810     0.0369 C.ar    
  18 C18           -6.3844    -5.0432    -1.1720 C.ar    
  19 C19           -5.9081    -6.3407    -1.1620 C.ar    
  20 C20           -5.6686    -6.9843     0.0386 C.ar    
  21 C21           -5.9035    -6.3374     1.2382 C.ar    
  22 C22           -6.3743    -5.0379     1.2466 C.ar    
  23 F23           -6.6181    -4.4164    -2.3458 F       
  24 F24           -6.6031    -4.4077     2.4195 F       
  25 C25           -1.1790    -0.7159     0.0090 C.ar    
  26 O26            1.2722     1.8458    -0.0002 O.3     
  27 C27            2.0772     0.7214     0.4000 C.3     
  28 O28            1.3034    -0.4202    -0.0129 O.3     
  29 H29           -1.2303     3.1540     0.0259 H       
  30 H30           -4.0908     2.6493     0.0237 H       
  31 H31           -8.9068    -0.9337     0.0366 H       
  32 H32           -8.9029     1.6318     0.0331 H       
  33 H33           -5.3128    -2.1275     0.0313 H       
  34 H34           -5.7227    -6.8534    -2.0942 H       
  35 H35           -5.2964    -7.9982     0.0392 H       
  36 H36           -5.7141    -6.8475     2.1711 H       
  37 H37           -1.1597    -1.7957     0.0028 H       
  38 H38            3.0390     0.7375    -0.1127 H       
  39 H39            2.2186     0.7173     1.4808 H       
@<TRIPOS>BOND
   1    1    2 ar
   2    1   26 1
   3    1    5 ar
   4    2   25 ar
   5    2   28 1
   6    3    4 ar
   7    3    6 1
   8    3   25 ar
   9    4    5 ar
  10    4    8 1
  11    5   29 1
  12    6    7 2
  13    7    8 1
  14    7    9 1
  15    8   30 1
  16    9   10 1
  17    9   13 2
  18   10   11 2
  19   10   14 1
  20   11   12 1
  21   11   31 1
  22   12   13 1
  23   12   32 1
  24   14   15 am
  25   14   33 1
  26   15   16 2
  27   15   17 1
  28   17   18 ar
  29   17   22 ar
  30   18   19 ar
  31   18   23 1
  32   19   20 ar
  33   19   34 1
  34   20   21 ar
  35   20   35 1
  36   21   22 ar
  37   21   36 1
  38   22   24 1
  39   25   37 1
  40   26   27 1
  41   27   28 1
  42   27   38 1
  43   27   39 1

#	End of record

