#	Name: ASD01883163
#	Creating user name:	WinNT
#	Creation time:	15. 06. 2019 19:45

#	Modifying user name:	WinNT
#	Modification time:	15. 06. 2019 19:45

#	Program:	/corina/corina34_cracker 3.40 0067  02.08.2006

@<TRIPOS>MOLECULE
ASD01883163
  48   49    0    0    0
SMALL
NO_CHARGES


@<TRIPOS>ATOM
   1 N1            -0.0126     1.3353     0.0118 N.am    
   2 C2             0.0045    -0.0105     0.0142 C.2     
   3 C3            -1.2143    -0.7327     0.0224 C.2     
   4 C4            -2.4237    -0.0154     0.0278 C.2     
   5 C5            -2.3751     1.3925     0.0249 C.2     
   6 C6            -1.1810     2.0272     0.0222 C.2     
   7 O7             1.0677    -0.6073     0.0090 O.2     
   8 C8            -1.2145    -2.1647     0.0246 C.1     
   9 N9            -1.2147    -3.3007     0.0264 N.1     
  10 C10            1.2554     2.0689     0.0038 C.3     
  11 C11            1.6893     2.3216    -1.4415 C.3     
  12 C12            3.0137     3.0877    -1.4498 C.3     
  13 C13            4.1130     2.2126    -0.8443 C.3     
  14 C14            3.3847     3.4492    -2.8895 C.3     
  15 C15           -3.7201    -0.7245     0.0360 C.ar    
  16 C16           -4.5736    -0.6106     1.1359 C.ar    
  17 C17           -5.7822    -1.2738     1.1394 C.ar    
  18 C18           -6.1513    -2.0549     0.0500 C.ar    
  19 C19           -5.3045    -2.1701    -1.0456 C.ar    
  20 C20           -4.0978    -1.5059    -1.0589 C.ar    
  21 O21           -7.3423    -2.7072     0.0569 O.3     
  22 C22           -7.7126    -3.3943    -1.1401 C.3     
  23 C23           -7.0835    -4.7889    -1.1431 C.3     
  24 C24           -9.2359    -3.5217    -1.2045 C.3     
  25 Cl25          -6.8440    -1.1339     2.5057 Cl      
  26 H26           -3.2910     1.9648     0.0290 H       
  27 H27           -1.1561     3.1069     0.0204 H       
  28 H28            1.1270     3.0221     0.5165 H       
  29 H29            2.0183     1.4814     0.5147 H       
  30 H30            1.8178     1.3683    -1.9542 H       
  31 H31            0.9265     2.9090    -1.9524 H       
  32 H32            2.9097     3.9994    -0.8615 H       
  33 H33            3.8487     1.9550     0.1813 H       
  34 H34            4.2169     1.3009    -1.4326 H       
  35 H35            5.0564     2.7584    -0.8502 H       
  36 H36            2.6015     4.0727    -3.3209 H       
  37 H37            4.3281     3.9950    -2.8954 H       
  38 H38            3.4886     2.5375    -3.4778 H       
  39 H39           -4.2869    -0.0042     1.9824 H       
  40 H40           -5.5948    -2.7778    -1.8899 H       
  41 H41           -3.4406    -1.5959    -1.9111 H       
  42 H42           -7.3580    -2.8339    -2.0052 H       
  43 H43           -7.4381    -5.3493    -0.2780 H       
  44 H44           -7.3660    -5.3130    -2.0561 H       
  45 H45           -5.9983    -4.6981    -1.0972 H       
  46 H46           -9.6841    -2.5281    -1.2024 H       
  47 H47           -9.5184    -4.0458    -2.1176 H       
  48 H48           -9.5905    -4.0821    -0.3394 H       
@<TRIPOS>BOND
   1    1    2 am
   2    1   10 1
   3    1    6 1
   4    2    3 1
   5    2    7 2
   6    3    4 2
   7    3    8 1
   8    4    5 1
   9    4   15 1
  10    5    6 2
  11    5   26 1
  12    6   27 1
  13    8    9 3
  14   10   11 1
  15   10   28 1
  16   10   29 1
  17   11   12 1
  18   11   30 1
  19   11   31 1
  20   12   13 1
  21   12   14 1
  22   12   32 1
  23   13   33 1
  24   13   34 1
  25   13   35 1
  26   14   36 1
  27   14   37 1
  28   14   38 1
  29   15   16 ar
  30   15   20 ar
  31   16   17 ar
  32   16   39 1
  33   17   18 ar
  34   17   25 1
  35   18   19 ar
  36   18   21 1
  37   19   20 ar
  38   19   40 1
  39   20   41 1
  40   21   22 1
  41   22   23 1
  42   22   24 1
  43   22   42 1
  44   23   43 1
  45   23   44 1
  46   23   45 1
  47   24   46 1
  48   24   47 1
  49   24   48 1

#	End of record

