#	Name: ASD01814398
#	Creating user name:	WinNT
#	Creation time:	15. 06. 2019 19:32

#	Modifying user name:	WinNT
#	Modification time:	15. 06. 2019 19:32

#	Program:	/corina/corina34_cracker 3.40 0067  02.08.2006

@<TRIPOS>MOLECULE
ASD01814398
  49   54    0    0    0
SMALL
NO_CHARGES


@<TRIPOS>ATOM
   1 C1            -0.0167     1.3819     0.0096 C.ar    
   2 C2             0.0021    -0.0041     0.0020 C.ar    
   3 C3             1.1970    -0.6936    -0.0131 C.ar    
   4 C4             2.3990     0.0034    -0.0209 C.ar    
   5 C5             2.3751     1.4118    -0.0131 C.ar    
   6 C6             1.1661     2.0940     0.0022 C.ar    
   7 N7             3.6102    -0.6577    -0.0356 N.pl3   
   8 N8             4.7455    -0.0611    -0.0428 N.2     
   9 C9             4.8827     1.2395    -0.0372 C.2     
  10 C10            3.6768     2.1037    -0.0219 C.2     
  11 C11            6.0121     2.1720    -0.0430 C.2     
  12 N12            5.4770     3.4117    -0.0316 N.am    
  13 N13            4.0818     3.3389    -0.0193 N.2     
  14 C14            3.5985    -2.1227    -0.0428 C.3     
  15 C15            3.5812    -2.6179    -1.4660 C.ar    
  16 C16            4.7727    -2.8537    -2.1281 C.ar    
  17 C17            4.7628    -3.3068    -3.4316 C.ar    
  18 C18            3.5494    -3.5272    -4.0808 C.ar    
  19 C19            2.3520    -3.2883    -3.4087 C.ar    
  20 C20            2.3739    -2.8402    -2.1036 C.ar    
  21 C21            3.5323    -4.0137    -5.4821 C.2     
  22 O22            7.1978     1.8862    -0.0552 O.2     
  23 C23            6.2157     4.6017    -0.0325 C.ar    
  24 C24            6.6603     5.1436    -1.2305 C.ar    
  25 C25            7.3889     6.3176    -1.2283 C.ar    
  26 C26            7.6764     6.9534    -0.0348 C.ar    
  27 C27            7.2361     6.4173     1.1618 C.ar    
  28 C28            6.5008     5.2463     1.1669 C.ar    
  29 F29            6.0703     4.7227     2.3355 F       
  30 C30            2.3926    -4.2458    -6.1643 C.2     
  31 S31            2.8316    -4.8071    -7.7755 S.3     
  32 C32            4.4901    -4.6778    -7.3829 C.2     
  33 N33            4.6358    -4.2532    -6.1757 N.2     
  34 H34           -0.9605     1.9069     0.0170 H       
  35 H35           -0.9294    -0.5505     0.0084 H       
  36 H36            1.1981    -1.7735    -0.0186 H       
  37 H37            1.1510     3.1739     0.0081 H       
  38 H38            4.4904    -2.4956     0.4608 H       
  39 H39            2.7106    -2.4815     0.4776 H       
  40 H40            5.7124    -2.6826    -1.6240 H       
  41 H41            5.6936    -3.4900    -3.9478 H       
  42 H42            1.4089    -3.4570    -3.9071 H       
  43 H43            1.4467    -2.6547    -1.5818 H       
  44 H44            6.4372     4.6479    -2.1637 H       
  45 H45            7.7348     6.7392    -2.1606 H       
  46 H46            8.2464     7.8707    -0.0367 H       
  47 H47            7.4630     6.9160     2.0925 H       
  48 H48            1.3887    -4.1114    -5.7895 H       
  49 H49            5.3020    -4.9145    -8.0546 H       
@<TRIPOS>BOND
   1    1    2 ar
   2    1    6 ar
   3    1   34 1
   4    2    3 ar
   5    2   35 1
   6    3    4 ar
   7    3   36 1
   8    4    5 ar
   9    4    7 1
  10    5    6 ar
  11    5   10 1
  12    6   37 1
  13    7    8 1
  14    7   14 1
  15    8    9 2
  16    9   10 1
  17    9   11 1
  18   10   13 2
  19   11   12 am
  20   11   22 2
  21   12   13 1
  22   12   23 1
  23   14   15 1
  24   14   38 1
  25   14   39 1
  26   15   16 ar
  27   15   20 ar
  28   16   17 ar
  29   16   40 1
  30   17   18 ar
  31   17   41 1
  32   18   19 ar
  33   18   21 1
  34   19   20 ar
  35   19   42 1
  36   20   43 1
  37   21   30 2
  38   21   33 1
  39   23   24 ar
  40   23   28 ar
  41   24   25 ar
  42   24   44 1
  43   25   26 ar
  44   25   45 1
  45   26   27 ar
  46   26   46 1
  47   27   28 ar
  48   27   47 1
  49   28   29 1
  50   30   31 1
  51   30   48 1
  52   31   32 1
  53   32   33 2
  54   32   49 1

#	End of record

