#	Name: ASD09740055
#	Creating user name:	WinNT
#	Creation time:	15. 06. 2019 21:22

#	Modifying user name:	WinNT
#	Modification time:	15. 06. 2019 21:22

#	Program:	/corina/corina34_cracker 3.40 0067  02.08.2006

@<TRIPOS>MOLECULE
ASD09740055
  44   47    0    0    0
SMALL
NO_CHARGES


@<TRIPOS>ATOM
   1 N1            -0.0144     1.2085     0.0087 N.2     
   2 O2             0.0021    -0.0041     0.0020 O.3     
   3 C3             1.2063     1.6802    -0.0004 C.2     
   4 N4             2.0462     0.6242    -0.0141 N.2     
   5 C5             1.2701    -0.4441    -0.0125 C.2     
   6 C6             1.7125    -1.8531    -0.0242 C.ar    
   7 C7             1.5951     3.1125     0.0031 C.ar    
   8 C8             3.0748    -2.1585    -0.0389 C.ar    
   9 C9             0.7688    -2.8832    -0.0150 C.ar    
  10 C10            1.1877    -4.1997    -0.0261 C.ar    
  11 C11            2.5492    -4.4977    -0.0466 C.ar    
  12 C12            3.4863    -3.4746    -0.0499 C.ar    
  13 C13            2.9464     3.4697    -0.0083 C.ar    
  14 C14            3.3203     4.7938    -0.0052 C.ar    
  15 C15            2.3526     5.7919     0.0090 C.ar    
  16 C16            0.9920     5.4377     0.0201 C.ar    
  17 C17            0.6159     4.0977     0.0120 C.ar    
  18 O18            2.9596    -5.7928    -0.0575 O.3     
  19 C19            4.3692    -6.0266    -0.0783 C.3     
  20 C20            4.6363    -7.5330    -0.0881 C.3     
  21 O21            0.2716    -5.2049    -0.0167 O.3     
  22 C22           -1.1063    -4.8267     0.0047 C.3     
  23 C23           -1.9798    -6.0828     0.0125 C.3     
  24 O24            2.4146     7.1388     0.0148 O.3     
  25 C25            1.1824     7.6761     0.0288 C.2     
  26 C26            0.2561     6.7083     0.0330 C.2     
  27 H27            3.8063    -1.3640    -0.0419 H       
  28 H28           -0.2858    -2.6509     0.0012 H       
  29 H29            4.5403    -3.7094    -0.0662 H       
  30 H30            3.7036     2.6997    -0.0194 H       
  31 H31            4.3674     5.0583    -0.0134 H       
  32 H32           -0.4293     3.8259     0.0202 H       
  33 H33            4.7991    -5.5756    -0.9727 H       
  34 H34            4.8243    -5.5826     0.8071 H       
  35 H35            5.7115    -7.7113    -0.1040 H       
  36 H36            4.2064    -7.9840     0.8063 H       
  37 H37            4.1813    -7.9770    -0.9735 H       
  38 H38           -1.3077    -4.2385     0.9000 H       
  39 H39           -1.3335    -4.2316    -0.8798 H       
  40 H40           -3.0308    -5.7944     0.0289 H       
  41 H41           -1.7783    -6.6711    -0.8827 H       
  42 H42           -1.7525    -6.6779     0.8970 H       
  43 H43            0.9699     8.7350     0.0358 H       
  44 H44           -0.8162     6.8368     0.0433 H       
@<TRIPOS>BOND
   1    1    2 1
   2    1    3 2
   3    2    5 1
   4    3    4 1
   5    3    7 1
   6    4    5 2
   7    5    6 1
   8    6    8 ar
   9    6    9 ar
  10    7   13 ar
  11    7   17 ar
  12    8   12 ar
  13    8   27 1
  14    9   10 ar
  15    9   28 1
  16   10   11 ar
  17   10   21 1
  18   11   12 ar
  19   11   18 1
  20   12   29 1
  21   13   14 ar
  22   13   30 1
  23   14   15 ar
  24   14   31 1
  25   15   16 ar
  26   15   24 1
  27   16   17 ar
  28   16   26 1
  29   17   32 1
  30   18   19 1
  31   19   20 1
  32   19   33 1
  33   19   34 1
  34   20   35 1
  35   20   36 1
  36   20   37 1
  37   21   22 1
  38   22   23 1
  39   22   38 1
  40   22   39 1
  41   23   40 1
  42   23   41 1
  43   23   42 1
  44   24   25 1
  45   25   26 2
  46   25   43 1
  47   26   44 1

#	End of record

