#	Name: ASD01814013
#	Creating user name:	WinNT
#	Creation time:	15. 06. 2019 19:31

#	Modifying user name:	WinNT
#	Modification time:	15. 06. 2019 19:31

#	Program:	/corina/corina34_cracker 3.40 0067  02.08.2006

@<TRIPOS>MOLECULE
ASD01814013
  45   47    0    0    0
SMALL
NO_CHARGES


@<TRIPOS>ATOM
   1 C1            -0.5555     0.7237     0.2431 C.ar    
   2 C2            -0.2948    -0.6377     0.2290 C.ar    
   3 C3             0.9979    -1.1074     0.1357 C.ar    
   4 C4             2.0603    -0.2121     0.0537 C.ar    
   5 C5             1.7965     1.1686     0.0674 C.ar    
   6 C6             0.4819     1.6316     0.1629 C.ar    
   7 N7             3.3567    -0.6709    -0.0394 N.pl3   
   8 C8             4.4126     0.1492    -0.1197 C.2     
   9 C9             4.2788     1.5227    -0.1155 C.2     
  10 C10            2.9303     2.1057    -0.0200 C.2     
  11 F11            0.2272     2.9583     0.1762 F       
  12 O12            2.7590     3.3122    -0.0127 O.2     
  13 C13            5.4627     2.3890    -0.2044 C.2     
  14 O14            5.3190     3.7293    -0.1994 O.3     
  15 O15            6.5715     1.8968    -0.2825 O.2     
  16 C16            3.5897    -2.1172    -0.0506 C.3     
  17 C17            3.5657    -2.6189    -1.4714 C.ar    
  18 C18            4.7346    -2.6579    -2.2092 C.ar    
  19 C19            4.7158    -3.1167    -3.5118 C.ar    
  20 C20            3.5215    -3.5396    -4.0802 C.ar    
  21 C21            2.3495    -3.4997    -3.3366 C.ar    
  22 C22            2.3758    -3.0446    -2.0328 C.ar    
  23 N23            3.4991    -4.0047    -5.4000 N.am    
  24 C24            4.5417    -4.7082    -5.8845 C.2     
  25 O25            5.5363    -4.8663    -5.2046 O.2     
  26 O26            4.4811    -5.2357    -7.1218 O.3     
  27 C27            5.6406    -5.9811    -7.5781 C.3     
  28 C28            5.3881    -6.4999    -8.9952 C.3     
  29 H29           -1.5742     1.0756     0.3125 H       
  30 H30           -1.1140    -1.3386     0.2923 H       
  31 H31            1.1864    -2.1707     0.1265 H       
  32 H32            5.4017    -0.2788    -0.1898 H       
  33 H33            6.1267     4.2577    -0.2598 H       
  34 H34            4.5612    -2.3322     0.3943 H       
  35 H35            2.8088    -2.6154     0.5239 H       
  36 H36            5.6631    -2.3289    -1.7665 H       
  37 H37            5.6290    -3.1463    -4.0877 H       
  38 H38            1.4190    -3.8275    -3.7760 H       
  39 H39            1.4647    -3.0136    -1.4538 H       
  40 H40            2.7332    -3.8207    -5.9661 H       
  41 H41            6.5140    -5.3289    -7.5803 H       
  42 H42            5.8176    -6.8232    -6.9091 H       
  43 H43            6.2586    -7.0594    -9.3377 H       
  44 H44            4.5147    -7.1521    -8.9931 H       
  45 H45            5.2111    -5.6578    -9.6643 H       
@<TRIPOS>BOND
   1    1    2 ar
   2    1    6 ar
   3    1   29 1
   4    2    3 ar
   5    2   30 1
   6    3    4 ar
   7    3   31 1
   8    4    5 ar
   9    4    7 1
  10    5    6 ar
  11    5   10 1
  12    6   11 1
  13    7    8 1
  14    7   16 1
  15    8    9 2
  16    8   32 1
  17    9   10 1
  18    9   13 1
  19   10   12 2
  20   13   14 1
  21   13   15 2
  22   14   33 1
  23   16   17 1
  24   16   34 1
  25   16   35 1
  26   17   18 ar
  27   17   22 ar
  28   18   19 ar
  29   18   36 1
  30   19   20 ar
  31   19   37 1
  32   20   21 ar
  33   20   23 1
  34   21   22 ar
  35   21   38 1
  36   22   39 1
  37   23   24 am
  38   23   40 1
  39   24   25 2
  40   24   26 1
  41   26   27 1
  42   27   28 1
  43   27   41 1
  44   27   42 1
  45   28   43 1
  46   28   44 1
  47   28   45 1

#	End of record

