#	Name: ASD01917945
#	Creating user name:	WinNT
#	Creation time:	15. 06. 2019 20:10

#	Modifying user name:	WinNT
#	Modification time:	15. 06. 2019 20:10

#	Program:	/corina/corina34_cracker 3.40 0067  02.08.2006

@<TRIPOS>MOLECULE
ASD01917945
  42   45    0    0    0
SMALL
NO_CHARGES


@<TRIPOS>ATOM
   1 N1             4.7268    -0.5760    -2.1727 N.ar    
   2 C2             5.2108     0.1538    -3.1576 C.ar    
   3 N3             5.1521     1.4703    -3.1428 N.ar    
   4 C4             4.5989     2.1138    -2.1280 C.ar    
   5 C5             4.0755     1.3802    -1.0681 C.ar    
   6 C6             4.1580    -0.0075    -1.1225 C.ar    
   7 O7             3.4992     2.0032    -0.0066 O.3     
   8 C8             3.5512     3.3614     0.0420 C.2     
   9 N9             2.4076     5.4369    -0.0246 N.pl3   
  10 C10            2.4044     4.0793    -0.0676 C.2     
  11 C11            4.7860     3.9993     0.2102 C.2     
  12 C12            4.8310     5.3882     0.2594 C.2     
  13 C13            3.5755     6.1279     0.1322 C.2     
  14 C14            6.1100     6.0964     0.4356 C.2     
  15 N15            6.1339     7.4432     0.4810 N.am    
  16 C16            7.3264     8.1099     0.7530 C.ar    
  17 N17            8.4528     7.4224     0.8588 N.ar    
  18 C18            7.3237     9.4918     0.9051 C.ar    
  19 C19            8.5154    10.1416     1.1746 C.ar    
  20 C20            9.6732     9.3837     1.2831 C.ar    
  21 C21            9.6033     8.0146     1.1150 C.ar    
  22 O22            7.1448     5.4660     0.5402 O.2     
  23 N23            1.3939     6.4023    -0.1108 N.2     
  24 C24            1.9710     7.5766    -0.0145 C.2     
  25 N25            3.2796     7.4180     0.1374 N.2     
  26 C26           10.8576     7.1867     1.2257 C.3     
  27 C27           10.6534     6.0889     2.2717 C.3     
  28 H28            5.6691    -0.3413    -4.0010 H       
  29 H29            4.5545     3.1929    -2.1223 H       
  30 H30            3.7635    -0.6117    -0.3190 H       
  31 H31            1.4666     3.5584    -0.1924 H       
  32 H32            5.6927     3.4196     0.3010 H       
  33 H33            5.3207     7.9482     0.3242 H       
  34 H34            6.4040    10.0507     0.8138 H       
  35 H35            8.5440    11.2142     1.2975 H       
  36 H36           10.6195     9.8601     1.4928 H       
  37 H37            1.4584     8.5267    -0.0457 H       
  38 H38           11.0792     6.7319     0.2602 H       
  39 H39           11.6888     7.8247     1.5261 H       
  40 H40           11.5607     5.4901     2.3518 H       
  41 H41           10.4318     6.5437     3.2372 H       
  42 H42            9.8223     5.4509     1.9713 H       
@<TRIPOS>BOND
   1    1    2 ar
   2    1    6 ar
   3    2    3 ar
   4    2   28 1
   5    3    4 ar
   6    4    5 ar
   7    4   29 1
   8    5    6 ar
   9    5    7 1
  10    6   30 1
  11    7    8 1
  12    8   11 1
  13    8   10 2
  14    9   10 1
  15    9   23 1
  16    9   13 1
  17   10   31 1
  18   11   12 2
  19   11   32 1
  20   12   13 1
  21   12   14 1
  22   13   25 2
  23   14   15 am
  24   14   22 2
  25   15   16 1
  26   15   33 1
  27   16   18 ar
  28   16   17 ar
  29   17   21 ar
  30   18   19 ar
  31   18   34 1
  32   19   20 ar
  33   19   35 1
  34   20   21 ar
  35   20   36 1
  36   21   26 1
  37   23   24 2
  38   24   25 1
  39   24   37 1
  40   26   27 1
  41   26   38 1
  42   26   39 1
  43   27   40 1
  44   27   41 1
  45   27   42 1

#	End of record

