#	Name: ASD02198711
#	Creating user name:	WinNT
#	Creation time:	15. 06. 2019 20:20

#	Modifying user name:	WinNT
#	Modification time:	15. 06. 2019 20:20

#	Program:	/corina/corina34_cracker 3.40 0067  02.08.2006

@<TRIPOS>MOLECULE
ASD02198711
  59   63    0    0    0
SMALL
NO_CHARGES


@<TRIPOS>ATOM
   1 C1            -0.4033     1.6750    -0.1637 C.2     
   2 C2            -0.5346     0.3248    -0.1373 C.2     
   3 N3             0.5521    -0.4759    -0.0615 N.pl3   
   4 N4             1.7529    -0.0300    -0.0103 N.2     
   5 C5             2.0215     1.2582    -0.0280 C.2     
   6 C6             0.9048     2.2130    -0.1092 C.2     
   7 C7             0.3563    -1.8610    -0.0371 C.ar    
   8 C8             0.8924    -2.6234     0.9999 C.ar    
   9 C9             0.6964    -3.9941     1.0213 C.ar    
  10 C10           -0.0330    -4.6058     0.0109 C.ar    
  11 C11           -0.5661    -3.8439    -1.0219 C.ar    
  12 C12           -0.3772    -2.4770    -1.0428 C.ar    
  13 C13            3.4175     1.7366     0.0329 C.2     
  14 N14            4.0318     2.5652    -0.8636 N.pl3   
  15 N15            5.3480     2.7639    -0.4283 N.2     
  16 C16            5.5313     2.0908     0.6795 C.2     
  17 C17            4.3439     1.4363     1.0075 C.2     
  18 C18            3.4496     3.1164    -2.0121 C.ar    
  19 C19            3.6813     4.4458    -2.3400 C.ar    
  20 C20            3.1061     4.9863    -3.4734 C.ar    
  21 C21            2.3002     4.2051    -4.2812 C.ar    
  22 C22            2.0672     2.8811    -3.9571 C.ar    
  23 C23            2.6441     2.3332    -2.8282 C.ar    
  24 O24            1.0986     3.4195    -0.1288 O.2     
  25 N25           -0.2314    -5.9907     0.0322 N.am    
  26 C26            0.7444    -6.8993    -0.1388 C.2     
  27 C27           -1.5303    -6.6380     0.2504 C.3     
  28 C28           -1.2043    -8.1014     0.6225 C.3     
  29 C29            0.1752    -8.2978    -0.0454 C.3     
  30 O30            1.9112    -6.6362    -0.3396 O.2     
  31 O31            1.6066    -2.0225     1.9877 O.3     
  32 C32            2.1260    -2.8658     3.0178 C.3     
  33 C33           -2.2769    -5.9537     1.3973 C.3     
  34 C34           -2.3669    -6.5910    -1.0298 C.3     
  35 H35           -1.2684     2.3182    -0.2286 H       
  36 H36           -1.5197    -0.1159    -0.1771 H       
  37 H37            1.1110    -4.5868     1.8233 H       
  38 H38           -1.1330    -4.3218    -1.8072 H       
  39 H39           -0.7927    -1.8870    -1.8463 H       
  40 H40            6.4490     2.0516     1.2476 H       
  41 H41            4.1819     0.8030     1.8672 H       
  42 H42            4.3103     5.0565    -1.7093 H       
  43 H43            3.2856     6.0202    -3.7288 H       
  44 H44            1.8516     4.6301    -5.1670 H       
  45 H45            1.4371     2.2737    -4.5899 H       
  46 H46            2.4621     1.2990    -2.5758 H       
  47 H47           -1.1324    -8.2223     1.7034 H       
  48 H48           -1.9432    -8.7844     0.2034 H       
  49 H49            0.0597    -8.7302    -1.0393 H       
  50 H50            0.8127    -8.9285     0.5742 H       
  51 H51            1.3033    -3.3752     3.5196 H       
  52 H52            2.7970    -3.6042     2.5790 H       
  53 H53            2.6738    -2.2611     3.7406 H       
  54 H54           -2.5262    -4.9322     1.1102 H       
  55 H55           -3.1925    -6.5039     1.6143 H       
  56 H56           -1.6438    -5.9376     2.2844 H       
  57 H57           -1.8273    -7.0897    -1.8350 H       
  58 H58           -3.3174    -7.0973    -0.8615 H       
  59 H59           -2.5520    -5.5527    -1.3050 H       
@<TRIPOS>BOND
   1    1    2 2
   2    1    6 1
   3    1   35 1
   4    2    3 1
   5    2   36 1
   6    3    4 1
   7    3    7 1
   8    4    5 2
   9    5    6 1
  10    5   13 1
  11    6   24 2
  12    7    8 ar
  13    7   12 ar
  14    8    9 ar
  15    8   31 1
  16    9   10 ar
  17    9   37 1
  18   10   11 ar
  19   10   25 1
  20   11   12 ar
  21   11   38 1
  22   12   39 1
  23   13   14 1
  24   13   17 2
  25   14   15 1
  26   14   18 1
  27   15   16 2
  28   16   17 1
  29   16   40 1
  30   17   41 1
  31   18   19 ar
  32   18   23 ar
  33   19   20 ar
  34   19   42 1
  35   20   21 ar
  36   20   43 1
  37   21   22 ar
  38   21   44 1
  39   22   23 ar
  40   22   45 1
  41   23   46 1
  42   25   27 1
  43   25   26 am
  44   26   30 2
  45   26   29 1
  46   27   28 1
  47   27   33 1
  48   27   34 1
  49   28   29 1
  50   28   47 1
  51   28   48 1
  52   29   49 1
  53   29   50 1
  54   31   32 1
  55   32   51 1
  56   32   52 1
  57   32   53 1
  58   33   54 1
  59   33   55 1
  60   33   56 1
  61   34   57 1
  62   34   58 1
  63   34   59 1

#	End of record

