#	Name: ASD00461029
#	Creating user name:	WinNT
#	Creation time:	15. 06. 2019 18:36

#	Modifying user name:	WinNT
#	Modification time:	15. 06. 2019 18:36

#	Program:	/corina/corina34_cracker 3.40 0067  02.08.2006

@<TRIPOS>MOLECULE
ASD00461029
  50   52    0    0    0
SMALL
NO_CHARGES


@<TRIPOS>ATOM
   1 C1            -0.0167     1.3781     0.0096 C.ar    
   2 C2             0.0021    -0.0041     0.0020 C.ar    
   3 C3             1.1709     2.0855     0.0021 C.ar    
   4 C4             1.2084    -0.6789    -0.0132 C.ar    
   5 C5             2.3773     1.4107    -0.0131 C.ar    
   6 C6             2.3960     0.0285    -0.0212 C.ar    
   7 C7             3.7112    -0.7071    -0.0368 C.3     
   8 N8             4.6648    -0.0241     0.8476 N.3     
   9 C9             5.6941    -0.9543     1.3306 C.3     
  10 C10            6.6519    -0.2194     2.2326 C.ar    
  11 C11            6.4043    -0.1512     3.5885 C.ar    
  12 C12            7.7795     0.3797     1.6990 C.ar    
  13 C13            7.2892     0.5274     4.4234 C.ar    
  14 C14            8.6640     1.0550     2.5182 C.ar    
  15 C15            8.4246     1.1362     3.8808 C.ar    
  16 H16            5.0828     0.7691     0.3848 H       
  17 C17            7.0276     0.6042     5.8814 C.ar    
  18 C18            5.7774     1.0068     6.3474 C.ar    
  19 C19            5.5396     1.0764     7.7051 C.ar    
  20 C20            6.5393     0.7475     8.6028 C.ar    
  21 C21            7.7820     0.3473     8.1459 C.ar    
  22 C22            8.0292     0.2685     6.7904 C.ar    
  23 O23            9.2933     1.8001     4.6871 O.3     
  24 C24           10.4346     2.3919     4.0632 C.3     
  25 C25            4.2652    -0.7313    -1.4627 C.3     
  26 C26            6.2736     0.8260    10.0841 C.3     
  27 F27            5.7845    -0.4043    10.5360 F       
  28 F28            7.4626     1.1302    10.7556 F       
  29 F29            5.3272     1.8251    10.3358 F       
  30 H30           -0.9592     1.9054     0.0170 H       
  31 H31           -0.9258    -0.5567     0.0083 H       
  32 H32            1.1563     3.1654     0.0077 H       
  33 H33            1.2231    -1.7588    -0.0184 H       
  34 H34            3.3051     1.9634    -0.0197 H       
  35 H35            3.5601    -1.7288     0.3117 H       
  36 H36            5.2204    -1.7638     1.8860 H       
  37 H37            6.2387    -1.3666     0.4811 H       
  38 H38            5.5252    -0.6232     4.0020 H       
  39 H39            7.9692     0.3189     0.6376 H       
  40 H40            9.5425     1.5202     2.0961 H       
  41 H41            4.9962     1.2642     5.6474 H       
  42 H42            4.5712     1.3887     8.0674 H       
  43 H43            8.5590     0.0920     8.8512 H       
  44 H44            8.9998    -0.0445     6.4347 H       
  45 H45           10.1066     3.1212     3.3226 H       
  46 H46           11.0441     2.8892     4.8178 H       
  47 H47           11.0238     1.6166     3.5735 H       
  48 H48            3.5576    -1.2381    -2.1189 H       
  49 H49            4.4163     0.2904    -1.8112 H       
  50 H50            5.2164    -1.2634    -1.4740 H       
@<TRIPOS>BOND
   1    1    2 ar
   2    1    3 ar
   3    1   30 1
   4    2    4 ar
   5    2   31 1
   6    3    5 ar
   7    3   32 1
   8    4    6 ar
   9    4   33 1
  10    5    6 ar
  11    5   34 1
  12    6    7 1
  13    7    8 1
  14    7   25 1
  15    7   35 1
  16    8    9 1
  17    8   16 1
  18    9   10 1
  19    9   36 1
  20    9   37 1
  21   10   11 ar
  22   10   12 ar
  23   11   13 ar
  24   11   38 1
  25   12   14 ar
  26   12   39 1
  27   13   17 1
  28   13   15 ar
  29   14   15 ar
  30   14   40 1
  31   15   23 1
  32   17   18 ar
  33   17   22 ar
  34   18   19 ar
  35   18   41 1
  36   19   20 ar
  37   19   42 1
  38   20   21 ar
  39   20   26 1
  40   21   22 ar
  41   21   43 1
  42   22   44 1
  43   23   24 1
  44   24   45 1
  45   24   46 1
  46   24   47 1
  47   25   48 1
  48   25   49 1
  49   25   50 1
  50   26   27 1
  51   26   28 1
  52   26   29 1

#	End of record

