#	Name: ASD02500117
#	Creating user name:	WinNT
#	Creation time:	15. 06. 2019 20:22

#	Modifying user name:	WinNT
#	Modification time:	15. 06. 2019 20:22

#	Program:	/corina/corina34_cracker 3.40 0067  02.08.2006

@<TRIPOS>MOLECULE
ASD02500117
  59   63    0    0    0
SMALL
NO_CHARGES


@<TRIPOS>ATOM
   1 N1            -3.4654     5.1019     0.5176 N.ar    
   2 C2            -4.6479     5.6251     0.3031 C.ar    
   3 C3            -5.7546     5.2771     1.0749 C.ar    
   4 C4            -5.6222     4.3680     2.0855 C.ar    
   5 C5            -4.3508     3.8078     2.3126 C.ar    
   6 C6            -4.1378     2.8677     3.3332 C.ar    
   7 C7            -2.8927     2.3492     3.5213 C.ar    
   8 C8            -1.8264     2.7397     2.7143 C.ar    
   9 C9            -1.9973     3.6488     1.7158 C.ar    
  10 C10           -3.2676     4.2066     1.4905 C.ar    
  11 S11           -0.6311     4.1253     0.7103 S.o2    
  12 O12           -0.6031     5.5460     0.7186 O.2     
  13 O13            0.4682     3.3239     1.1209 O.2     
  14 N14           -0.9846     3.6736    -0.8431 N.am    
  15 C15           -1.2163     2.3357    -1.1425 C.ar    
  16 C16           -2.2590     1.9852    -1.9958 C.ar    
  17 C17           -2.4908     0.6620    -2.2940 C.ar    
  18 C18           -1.6780    -0.3308    -1.7391 C.ar    
  19 C19           -0.6318     0.0243    -0.8826 C.ar    
  20 C20           -0.4015     1.3497    -0.5928 C.ar    
  21 C21           -1.9241    -1.7504    -2.0563 C.2     
  22 O22           -0.9916    -2.4848    -2.3203 O.2     
  23 N23           -3.1824    -2.2332    -2.0535 N.am    
  24 C24           -3.4322    -3.6710    -2.2266 C.3     
  25 C25           -4.2694    -4.1691    -1.0420 C.3     
  26 N26           -5.4162    -3.2672    -0.8653 N.am    
  27 C27           -5.1664    -1.8293    -0.6922 C.3     
  28 C28           -4.3289    -1.3320    -1.8712 C.3     
  29 C29           -7.8044    -2.8711    -0.4798 C.ar    
  30 C30           -9.1135    -3.3183    -0.6438 C.ar    
  31 C31          -10.1598    -2.4872    -0.2760 C.ar    
  32 C32           -9.8602    -1.2372     0.2432 C.ar    
  33 C33           -8.5345    -0.8578     0.3784 C.ar    
  34 N34           -7.5607    -1.6666     0.0213 N.ar    
  35 C35           -6.6745    -3.7500    -0.8625 C.2     
  36 O36           -6.8824    -4.9060    -1.1737 O.2     
  37 H37           -4.7676     6.3454    -0.4927 H       
  38 H38           -6.7162     5.7261     0.8743 H       
  39 H39           -6.4693     4.0870     2.6937 H       
  40 H40           -4.9565     2.5578     3.9657 H       
  41 H41           -2.7297     1.6260     4.3067 H       
  42 H42           -0.8482     2.3145     2.8839 H       
  43 H43           -1.0301     4.3424    -1.5443 H       
  44 H44           -2.8868     2.7527    -2.4239 H       
  45 H45           -3.3001     0.3907    -2.9557 H       
  46 H46           -0.0023    -0.7404    -0.4521 H       
  47 H47            0.4096     1.6250     0.0650 H       
  48 H48           -3.9771    -3.8384    -3.1557 H       
  49 H49           -2.4832    -4.2065    -2.2546 H       
  50 H50           -4.6261    -5.1789    -1.2449 H       
  51 H51           -3.6607    -4.1683    -0.1378 H       
  52 H52           -6.1154    -1.2939    -0.6642 H       
  53 H53           -4.6215    -1.6619     0.2369 H       
  54 H54           -3.9719    -0.3230    -1.6646 H       
  55 H55           -4.9391    -1.3290    -2.7744 H       
  56 H56           -9.3103    -4.2986    -1.0520 H       
  57 H57          -11.1852    -2.8059    -0.3915 H       
  58 H58          -10.6525    -0.5655     0.5391 H       
  59 H59           -8.2975     0.1153     0.7825 H       
@<TRIPOS>BOND
   1    1    2 ar
   2    1   10 ar
   3    2    3 ar
   4    2   37 1
   5    3    4 ar
   6    3   38 1
   7    4    5 ar
   8    4   39 1
   9    5    6 ar
  10    5   10 ar
  11    6    7 ar
  12    6   40 1
  13    7    8 ar
  14    7   41 1
  15    8    9 ar
  16    8   42 1
  17    9   10 ar
  18    9   11 1
  19   11   12 2
  20   11   13 2
  21   11   14 am
  22   14   15 1
  23   14   43 1
  24   15   16 ar
  25   15   20 ar
  26   16   17 ar
  27   16   44 1
  28   17   18 ar
  29   17   45 1
  30   18   19 ar
  31   18   21 1
  32   19   20 ar
  33   19   46 1
  34   20   47 1
  35   21   22 2
  36   21   23 am
  37   23   24 1
  38   23   28 1
  39   24   25 1
  40   24   48 1
  41   24   49 1
  42   25   26 1
  43   25   50 1
  44   25   51 1
  45   26   27 1
  46   26   35 am
  47   27   28 1
  48   27   52 1
  49   27   53 1
  50   28   54 1
  51   28   55 1
  52   29   30 ar
  53   29   34 ar
  54   29   35 1
  55   30   31 ar
  56   30   56 1
  57   31   32 ar
  58   31   57 1
  59   32   33 ar
  60   32   58 1
  61   33   34 ar
  62   33   59 1
  63   35   36 2

#	End of record

