#	Name: ASD02408137
#	Creating user name:	WinNT
#	Creation time:	15. 06. 2019 20:21

#	Modifying user name:	WinNT
#	Modification time:	15. 06. 2019 20:21

#	Program:	/corina/corina34_cracker 3.40 0067  02.08.2006

@<TRIPOS>MOLECULE
ASD02408137
  65   67    0    0    0
SMALL
NO_CHARGES


@<TRIPOS>ATOM
   1 C1            -1.2165     1.5644     0.0905 C.ar    
   2 C2            -1.4561     0.2262    -0.1589 C.ar    
   3 C3             0.0778     2.0502     0.0716 C.ar    
   4 C4             1.1321     1.1977    -0.1967 C.ar    
   5 C5             0.8925    -0.1410    -0.4458 C.ar    
   6 C6            -0.4014    -0.6266    -0.4273 C.ar    
   7 C7             0.3390     3.5093     0.3431 C.3     
   8 C8             0.4297     3.7352     1.8304 C.2     
   9 N9             0.6606     4.9814     2.2868 N.am    
  10 N10            0.2765     2.7176     2.6336 N.2     
  11 C11            0.3464     2.8588     3.9634 C.2     
  12 C12            0.5900     4.1307     4.5076 C.2     
  13 C13            0.7473     5.2199     3.6124 C.2     
  14 N14            0.1811     1.7718     4.7864 N.pl3   
  15 C15            0.7809     0.4751     4.4433 C.3     
  16 O16            0.9604     6.3447     4.0307 O.2     
  17 C17           -2.3665     2.4952     0.3769 C.3     
  18 N18           -2.7003     3.2495    -0.8387 N.3     
  19 C19           -3.2231     2.3593    -1.8838 C.3     
  20 C20           -3.6510     4.3298    -0.5434 C.3     
  21 C21           -2.9127     5.4894     0.1284 C.3     
  22 O22           -2.0021     6.0775    -0.8027 O.3     
  23 C23           -1.2576     7.1762    -0.2727 C.3     
  24 C24           -0.3144    -0.5957     4.4646 C.3     
  25 C25           -1.0215    -0.5696     5.8216 C.3     
  26 C26           -1.6781     0.7970     6.0303 C.3     
  27 C27           -0.5936     1.8851     6.0296 C.3     
  28 C28           -2.0932    -1.6610     5.8590 C.3     
  29 C29           -2.7146    -1.7178     7.2559 C.3     
  30 O30           -3.7155    -2.7372     7.2909 O.3     
  31 C31            0.6717     4.3231     5.9242 C.1     
  32 N32            0.7366     4.4757     7.0481 N.1     
  33 H33           -2.4670    -0.1533    -0.1438 H       
  34 H34            2.1431     1.5773    -0.2121 H       
  35 H35            1.7162    -0.8070    -0.6561 H       
  36 H36           -0.5886    -1.6723    -0.6216 H       
  37 H37            1.2772     3.8041    -0.1270 H       
  38 H38           -0.4758     4.1066    -0.0661 H       
  39 H39            0.7655     5.7126     1.6582 H       
  40 H40            1.2209     0.5281     3.4475 H       
  41 H41            1.5512     0.2245     5.1726 H       
  42 H42           -3.2332     1.9151     0.6940 H       
  43 H43           -2.0841     3.1888     1.1688 H       
  44 H44           -4.0671     1.7930    -1.4899 H       
  45 H45           -3.5507     2.9536    -2.7368 H       
  46 H46           -2.4395     1.6709    -2.2000 H       
  47 H47           -4.1056     4.6774    -1.4711 H       
  48 H48           -4.4276     3.9578     0.1248 H       
  49 H49           -3.6337     6.2390     0.4544 H       
  50 H50           -2.3602     5.1172     0.9912 H       
  51 H51           -0.5899     7.5667    -1.0407 H       
  52 H52           -1.9443     7.9608     0.0449 H       
  53 H53           -0.6709     6.8390     0.5817 H       
  54 H54           -1.0367    -0.3930     3.6739 H       
  55 H55            0.1331    -1.5770     4.3064 H       
  56 H56           -0.2942    -0.7478     6.6136 H       
  57 H57           -2.3876     0.9866     5.2249 H       
  58 H58           -2.2012     0.8070     6.9865 H       
  59 H59            0.0625     1.7476     6.8891 H       
  60 H60           -1.0621     2.8680     6.0785 H       
  61 H61           -2.8675    -1.4352     5.1258 H       
  62 H62           -1.6396    -2.6238     5.6236 H       
  63 H63           -1.9403    -1.9436     7.9891 H       
  64 H64           -3.1682    -0.7550     7.4913 H       
  65 H65           -4.1528    -2.8298     8.1483 H       
@<TRIPOS>BOND
   1    1    2 ar
   2    1    3 ar
   3    1   17 1
   4    2    6 ar
   5    2   33 1
   6    3    4 ar
   7    3    7 1
   8    4    5 ar
   9    4   34 1
  10    5    6 ar
  11    5   35 1
  12    6   36 1
  13    7    8 1
  14    7   37 1
  15    7   38 1
  16    8    9 1
  17    8   10 2
  18    9   13 am
  19    9   39 1
  20   10   11 1
  21   11   12 2
  22   11   14 1
  23   12   13 1
  24   12   31 1
  25   13   16 2
  26   14   15 1
  27   14   27 1
  28   15   24 1
  29   15   40 1
  30   15   41 1
  31   17   18 1
  32   17   42 1
  33   17   43 1
  34   18   19 1
  35   18   20 1
  36   19   44 1
  37   19   45 1
  38   19   46 1
  39   20   21 1
  40   20   47 1
  41   20   48 1
  42   21   22 1
  43   21   49 1
  44   21   50 1
  45   22   23 1
  46   23   51 1
  47   23   52 1
  48   23   53 1
  49   24   25 1
  50   24   54 1
  51   24   55 1
  52   25   26 1
  53   25   28 1
  54   25   56 1
  55   26   27 1
  56   26   57 1
  57   26   58 1
  58   27   59 1
  59   27   60 1
  60   28   29 1
  61   28   61 1
  62   28   62 1
  63   29   30 1
  64   29   63 1
  65   29   64 1
  66   30   65 1
  67   31   32 3

#	End of record

