#	Name: ASD03091803
#	Creating user name:	WinNT
#	Creation time:	15. 06. 2019 20:31

#	Modifying user name:	WinNT
#	Modification time:	15. 06. 2019 20:31

#	Program:	/corina/corina34_cracker 3.40 0067  02.08.2006

@<TRIPOS>MOLECULE
ASD03091803
  51   55    0    0    0
SMALL
NO_CHARGES


@<TRIPOS>ATOM
   1 N1             0.0829     1.2210    -1.2662 N.pl3   
   2 C2             0.0754    -0.1097    -0.9479 C.2     
   3 C3             1.3177    -0.5139    -0.6400 C.2     
   4 C4             2.1925     0.6541    -0.7721 C.ar    
   5 C5             3.5590     0.8658    -0.5910 C.ar    
   6 C6             4.0871     2.1316    -0.8054 C.ar    
   7 C7             3.2520     3.1830    -1.1991 C.ar    
   8 C8             1.9143     2.9806    -1.3775 C.ar    
   9 C9             1.3625     1.7194    -1.1688 C.ar    
  10 C10           -1.1469    -0.9912    -0.9436 C.3     
  11 F11           -2.2661    -0.2383    -1.3149 F       
  12 F12           -0.9685    -2.0403    -1.8517 F       
  13 F13           -1.3409    -1.5132     0.3398 F       
  14 C14            5.5386     2.3700    -0.6163 C.ar    
  15 C15            6.0627     3.6433    -0.8332 C.ar    
  16 C16            7.4175     3.8532    -0.6532 C.ar    
  17 C17            8.2095     2.7774    -0.2599 C.ar    
  18 C18            7.6193     1.5372    -0.0623 C.ar    
  19 N19            6.3243     1.3707    -0.2372 N.ar    
  20 O20            9.5457     2.9402    -0.0723 O.3     
  21 C21           11.9667     5.7724     0.3957 C.3     
  22 C22           11.3463     4.3873     0.6394 C.3     
  23 C23           10.0589     4.2694    -0.1815 C.3     
  24 C24           10.3525     4.5829    -1.6514 C.3     
  25 C25           11.0403     5.9547    -1.7398 C.3     
  26 C26           10.2317     6.9459    -0.8714 C.3     
  27 C27           10.8439     6.8254     0.5397 C.3     
  28 N28           12.3475     5.8383    -1.0404 N.3     
  29 C29           13.1936     7.0091    -1.3075 C.3     
  30 H30           -0.6971     1.7359    -1.5261 H       
  31 H31            1.6159    -1.5106    -0.3500 H       
  32 H32            4.2007     0.0522    -0.2863 H       
  33 H33            3.6704     4.1650    -1.3632 H       
  34 H34            1.2815     3.8013    -1.6816 H       
  35 H35            5.4190     4.4551    -1.1381 H       
  36 H36            7.8516     4.8290    -0.8142 H       
  37 H37            8.2285     0.6992     0.2427 H       
  38 H38           12.8052     5.9699     1.0636 H       
  39 H39           12.0486     3.6132     0.3302 H       
  40 H40           11.1159     4.2717     1.6985 H       
  41 H41            9.3206     4.9755     0.1986 H       
  42 H42           11.0102     3.8176    -2.0636 H       
  43 H43            9.4188     4.6057    -2.2133 H       
  44 H44           11.1422     6.2972    -2.7695 H       
  45 H45           10.3462     7.9619    -1.2491 H       
  46 H46            9.1791     6.6633    -0.8536 H       
  47 H47           10.0923     6.4837     1.2514 H       
  48 H48           11.2595     7.7822     0.8558 H       
  49 H49           14.1015     6.9457    -0.7077 H       
  50 H50           13.4575     7.0330    -2.3648 H       
  51 H51           12.6495     7.9173    -1.0481 H       
@<TRIPOS>BOND
   1    1    2 1
   2    1    9 1
   3    1   30 1
   4    2    3 2
   5    2   10 1
   6    3    4 1
   7    3   31 1
   8    4    5 ar
   9    4    9 ar
  10    5    6 ar
  11    5   32 1
  12    6    7 ar
  13    6   14 1
  14    7    8 ar
  15    7   33 1
  16    8    9 ar
  17    8   34 1
  18   10   11 1
  19   10   12 1
  20   10   13 1
  21   14   15 ar
  22   14   19 ar
  23   15   16 ar
  24   15   35 1
  25   16   17 ar
  26   16   36 1
  27   17   18 ar
  28   17   20 1
  29   18   19 ar
  30   18   37 1
  31   20   23 1
  32   21   22 1
  33   21   27 1
  34   21   28 1
  35   21   38 1
  36   22   23 1
  37   22   39 1
  38   22   40 1
  39   23   24 1
  40   23   41 1
  41   24   25 1
  42   24   42 1
  43   24   43 1
  44   25   26 1
  45   25   28 1
  46   25   44 1
  47   26   27 1
  48   26   45 1
  49   26   46 1
  50   27   47 1
  51   27   48 1
  52   28   29 1
  53   29   49 1
  54   29   50 1
  55   29   51 1

#	End of record

