#	Name: ASD01881153
#	Creating user name:	WinNT
#	Creation time:	15. 06. 2019 19:42

#	Modifying user name:	WinNT
#	Modification time:	15. 06. 2019 19:42

#	Program:	/corina/corina34_cracker 3.40 0067  02.08.2006

@<TRIPOS>MOLECULE
ASD01881153
  58   61    0    0    0
SMALL
NO_CHARGES


@<TRIPOS>ATOM
   1 N1             0.3072     1.3099    -0.8097 N.ar    
   2 C2             0.2695    -0.0051    -0.7372 C.ar    
   3 N3             1.0825    -0.6815     0.0491 N.ar    
   4 C4             1.9772    -0.0594     0.8038 C.ar    
   5 C5             2.0533     1.3190     0.7607 C.ar    
   6 C6             1.1774     2.0050    -0.0829 C.ar    
   7 C7             3.0566     2.0638     1.6032 C.3     
   8 O8             4.2861     2.1837     0.8850 O.3     
   9 C9             5.3022     2.8334     1.5072 C.ar    
  10 C10            6.5271     2.9855     0.8639 C.ar    
  11 C11            7.5545     3.6430     1.4931 C.ar    
  12 C12            7.3794     4.1631     2.7801 C.ar    
  13 C13            6.1465     4.0078     3.4227 C.ar    
  14 C14            5.1167     3.3508     2.7829 C.ar    
  15 C15            8.9699     3.9735     1.0896 C.3     
  16 N16            9.5589     4.6998     2.2204 N.am    
  17 C17            8.6376     4.8067     3.1931 C.2     
  18 O18            8.8174     5.3572     4.2622 O.2     
  19 C19           -0.7316    -0.7566    -1.5764 C.3     
  20 C20            2.8998    -0.8466     1.6983 C.3     
  21 Cl21           5.9116     4.6462     5.0198 Cl      
  22 N22            1.2146     3.3876    -0.1619 N.3     
  23 C23           -0.0190     3.9792     0.3749 C.3     
  24 C24            0.0944     5.5052     0.3430 C.3     
  25 N25            0.3293     5.9475    -1.0386 N.3     
  26 C26            1.5628     5.3560    -1.5754 C.3     
  27 C27            1.4495     3.8300    -1.5435 C.3     
  28 C28            0.3687     7.4136    -1.1224 C.3     
  29 C29           10.9491     6.6524     1.7343 C.3     
  30 C30           10.9261     5.2229     2.2792 C.3     
  31 H31            2.6717     3.0573     1.8330 H       
  32 H32            3.2292     1.5175     2.5305 H       
  33 H33            6.6692     2.5862    -0.1295 H       
  34 H34            4.1647     3.2311     3.2787 H       
  35 H35            9.5293     3.0573     0.9005 H       
  36 H36            8.9687     4.6028     0.1997 H       
  37 H37           -0.2871    -0.9994    -2.5416 H       
  38 H38           -1.0161    -1.6765    -1.0656 H       
  39 H39           -1.6155    -0.1373    -1.7290 H       
  40 H40            3.8085    -1.0984     1.1515 H       
  41 H41            3.1559    -0.2484     2.5727 H       
  42 H42            2.4023    -1.7624     2.0176 H       
  43 H43           -0.8674     3.6647    -0.2329 H       
  44 H44           -0.1643     3.6467     1.4027 H       
  45 H45           -0.8308     5.9463     0.7137 H       
  46 H46            0.9262     5.8213     0.9725 H       
  47 H47            1.7082     5.6885    -2.6032 H       
  48 H48            2.4113     5.6704    -0.9677 H       
  49 H49            2.3747     3.3889    -1.9142 H       
  50 H50            0.6177     3.5139    -2.1730 H       
  51 H51            1.1738     7.7921    -0.4926 H       
  52 H52            0.5439     7.7139    -2.1555 H       
  53 H53           -0.5823     7.8227    -0.7814 H       
  54 H54           10.6041     6.6527     0.7003 H       
  55 H55           10.2933     7.2813     2.3363 H       
  56 H56           11.9663     7.0416     1.7780 H       
  57 H57           11.2710     5.2226     3.3131 H       
  58 H58           11.5819     4.5940     1.6772 H       
@<TRIPOS>BOND
   1    1    2 ar
   2    1    6 ar
   3    2    3 ar
   4    2   19 1
   5    3    4 ar
   6    4    5 ar
   7    4   20 1
   8    5    6 ar
   9    5    7 1
  10    6   22 1
  11    7    8 1
  12    7   31 1
  13    7   32 1
  14    8    9 1
  15    9   10 ar
  16    9   14 ar
  17   10   11 ar
  18   10   33 1
  19   11   12 ar
  20   11   15 1
  21   12   13 ar
  22   12   17 1
  23   13   14 ar
  24   13   21 1
  25   14   34 1
  26   15   16 1
  27   15   35 1
  28   15   36 1
  29   16   17 am
  30   16   30 1
  31   17   18 2
  32   19   37 1
  33   19   38 1
  34   19   39 1
  35   20   40 1
  36   20   41 1
  37   20   42 1
  38   22   23 1
  39   22   27 1
  40   23   24 1
  41   23   43 1
  42   23   44 1
  43   24   25 1
  44   24   45 1
  45   24   46 1
  46   25   26 1
  47   25   28 1
  48   26   27 1
  49   26   47 1
  50   26   48 1
  51   27   49 1
  52   27   50 1
  53   28   51 1
  54   28   52 1
  55   28   53 1
  56   29   30 1
  57   29   54 1
  58   29   55 1
  59   29   56 1
  60   30   57 1
  61   30   58 1

#	End of record

