#	Name: ASD07931707
#	Creating user name:	WinNT
#	Creation time:	15. 06. 2019 21:13

#	Modifying user name:	WinNT
#	Modification time:	15. 06. 2019 21:13

#	Program:	/corina/corina34_cracker 3.40 0067  02.08.2006

@<TRIPOS>MOLECULE
ASD07931707
  58   63    0    0    0
SMALL
NO_CHARGES


@<TRIPOS>ATOM
   1 C1             4.1919    -3.6174    -0.3724 C.2     
   2 C2             2.8843    -3.3242    -0.6474 C.2     
   3 C3             2.5150    -1.9337    -0.9231 C.2     
   4 N4             3.4658    -0.9835    -0.9012 N.am    
   5 C5             4.7747    -1.3036    -0.6197 C.2     
   6 C6             5.1415    -2.5883    -0.3605 C.2     
   7 C7             3.1309     0.4197    -1.1793 C.3     
   8 C8             3.9267     1.3010    -0.2049 C.3     
   9 N9             5.3600     1.0544    -0.4171 N.am    
  10 C10            5.7815    -0.2194    -0.6027 C.2     
  11 C11            6.3149     2.1654    -0.4276 C.3     
  12 O12            1.3575    -1.6412    -1.1703 O.2     
  13 N13            1.9178    -4.3337    -0.6654 N.pl3   
  14 C14            1.5091    -5.0905     0.4027 C.2     
  15 C15            1.2010    -4.7469    -1.7436 C.2     
  16 N16            0.4003    -5.7064    -1.3672 N.2     
  17 C17            0.5685    -5.9374    -0.0565 C.2     
  18 C18           -0.1682    -6.9671     0.7608 C.3     
  19 O19            6.9626    -0.4668    -0.7517 O.2     
  20 C20            5.9958     3.2419    -1.4784 C.3     
  21 C21            6.4022     4.2823    -0.4214 C.3     
  22 C22            6.0279     3.2344     0.6400 C.3     
  23 O23            6.8640     3.2094    -2.6130 O.3     
  24 C24            6.4199     3.8127    -3.7474 C.ar    
  25 C25            5.2315     4.5254    -3.7316 C.ar    
  26 C26            4.7807     5.1385    -4.8849 C.ar    
  27 C27            5.5158     5.0400    -6.0524 C.ar    
  28 C28            6.7055     4.3268    -6.0719 C.ar    
  29 C29            7.1615     3.7180    -4.9188 C.ar    
  30 F30            5.0730     5.6404    -7.1787 F       
  31 C31            7.6784     4.0734    -7.2036 C.3     
  32 C32            8.9830     3.6131    -6.5193 C.3     
  33 C33            8.4692     3.0083    -5.1970 C.3     
  34 H34            4.4889    -4.6342    -0.1617 H       
  35 H35            6.1746    -2.8161    -0.1431 H       
  36 H36            3.4029     0.6668    -2.2055 H       
  37 H37            2.0628     0.5795    -1.0321 H       
  38 H38            3.7036     2.3508    -0.3951 H       
  39 H39            3.6592     1.0467     0.8207 H       
  40 H40            7.3524     1.8317    -0.4455 H       
  41 H41            1.8721    -5.0206     1.4175 H       
  42 H42            1.2803    -4.3479    -2.7441 H       
  43 H43            0.3823    -7.9076     0.7421 H       
  44 H44           -0.2571    -6.6185     1.7897 H       
  45 H45           -1.1628    -7.1198     0.3418 H       
  46 H46            4.9416     3.2863    -1.7519 H       
  47 H47            7.4640     4.5284    -0.4366 H       
  48 H48            5.7624     5.1646    -0.4086 H       
  49 H49            4.9825     3.2767     0.9457 H       
  50 H50            6.7160     3.2035     1.4848 H       
  51 H51            4.6584     4.6012    -2.8193 H       
  52 H52            3.8546     5.6941    -4.8747 H       
  53 H53            7.2991     3.2903    -7.8602 H       
  54 H54            7.8501     4.9904    -7.7673 H       
  55 H55            9.4911     2.8594    -7.1208 H       
  56 H56            9.6388     4.4617    -6.3246 H       
  57 H57            9.1808     3.1967    -4.3931 H       
  58 H58            8.3010     1.9374    -5.3110 H       
@<TRIPOS>BOND
   1    1    2 2
   2    1    6 1
   3    1   34 1
   4    2    3 1
   5    2   13 1
   6    3    4 am
   7    3   12 2
   8    4    5 1
   9    4    7 1
  10    5    6 2
  11    5   10 1
  12    6   35 1
  13    7    8 1
  14    7   36 1
  15    7   37 1
  16    8    9 1
  17    8   38 1
  18    8   39 1
  19    9   10 am
  20    9   11 1
  21   10   19 2
  22   11   20 1
  23   11   22 1
  24   11   40 1
  25   13   14 1
  26   13   15 1
  27   14   17 2
  28   14   41 1
  29   15   16 2
  30   15   42 1
  31   16   17 1
  32   17   18 1
  33   18   43 1
  34   18   44 1
  35   18   45 1
  36   20   21 1
  37   20   23 1
  38   20   46 1
  39   21   22 1
  40   21   47 1
  41   21   48 1
  42   22   49 1
  43   22   50 1
  44   23   24 1
  45   24   25 ar
  46   24   29 ar
  47   25   26 ar
  48   25   51 1
  49   26   27 ar
  50   26   52 1
  51   27   28 ar
  52   27   30 1
  53   28   29 ar
  54   28   31 1
  55   29   33 1
  56   31   32 1
  57   31   53 1
  58   31   54 1
  59   32   33 1
  60   32   55 1
  61   32   56 1
  62   33   57 1
  63   33   58 1

#	End of record

