#	Name: ASD02562028
#	Creating user name:	WinNT
#	Creation time:	15. 06. 2019 20:25

#	Modifying user name:	WinNT
#	Modification time:	15. 06. 2019 20:25

#	Program:	/corina/corina34_cracker 3.40 0067  02.08.2006

@<TRIPOS>MOLECULE
ASD02562028
  47   50    0    0    0
SMALL
NO_CHARGES


@<TRIPOS>ATOM
   1 C1            -1.1123     1.5055     0.6520 C.ar    
   2 C2            -1.0587     0.1386     0.8586 C.ar    
   3 C3            -1.2179    -0.7366    -0.2077 C.ar    
   4 C4            -1.4315    -0.2431    -1.4838 C.ar    
   5 C5            -1.4864     1.1355    -1.6944 C.ar    
   6 C6            -1.3301     2.0083    -0.6160 C.ar    
   7 Cl7           -0.9122     2.5918     1.9912 Cl      
   8 O8            -1.1634    -2.0783     0.0011 O.3     
   9 C9             0.0420    -2.6943    -0.1192 C.ar    
  10 C10            0.1279    -4.0773    -0.0284 C.ar    
  11 C11            1.3542    -4.7040    -0.1513 C.ar    
  12 C12            2.4964    -3.9561    -0.3640 C.ar    
  13 C13            2.4154    -2.5737    -0.4549 C.ar    
  14 C14            1.1865    -1.9430    -0.3383 C.ar    
  15 Cl15          -1.3051    -5.0198     0.2399 Cl      
  16 O16            3.5397    -1.8390    -0.6638 O.3     
  17 C17            4.7706    -2.5555    -0.7803 C.3     
  18 C18            5.8987    -1.5824    -1.0073 C.2     
  19 O19            6.3465    -1.1479    -2.1894 O.3     
  20 N20            7.2641    -0.3718    -2.0264 N.2     
  21 C21            7.5050    -0.2226    -0.7494 C.2     
  22 N22            6.6208    -0.9994    -0.0832 N.2     
  23 C23            8.5489     0.6408    -0.1450 C.ar    
  24 C24            9.3903     1.3948    -0.9615 C.ar    
  25 C25           10.3593     2.1968    -0.3970 C.ar    
  26 C26           10.4978     2.2535     0.9836 C.ar    
  27 C27            9.6611     1.5035     1.7994 C.ar    
  28 C28            8.6865     0.7042     1.2407 C.ar    
  29 C29           -1.7069     1.6530    -3.0114 C.1     
  30 N30           -1.8819     2.0634    -4.0560 N.1     
  31 O31           11.4540     3.0438     1.5370 O.3     
  32 C32           11.5411     3.0547     2.9633 C.3     
  33 H33           -0.8922    -0.2492     1.8527 H       
  34 H34           -1.5550    -0.9231    -2.3137 H       
  35 H35           -1.3718     3.0758    -0.7742 H       
  36 H36            1.4194    -5.7797    -0.0805 H       
  37 H37            3.4532    -4.4478    -0.4593 H       
  38 H38            1.1219    -0.8672    -0.4092 H       
  39 H39            4.9530    -3.1158     0.1368 H       
  40 H40            4.7111    -3.2456    -1.6219 H       
  41 H41            9.2834     1.3506    -2.0353 H       
  42 H42           11.0114     2.7812    -1.0291 H       
  43 H43            9.7711     1.5496     2.8728 H       
  44 H44            8.0358     0.1214     1.8758 H       
  45 H45           11.7502     2.0470     3.3222 H       
  46 H46           12.3432     3.7246     3.2732 H       
  47 H47           10.5963     3.4009     3.3824 H       
@<TRIPOS>BOND
   1    1    2 ar
   2    1    7 1
   3    1    6 ar
   4    2    3 ar
   5    2   33 1
   6    3    4 ar
   7    3    8 1
   8    4    5 ar
   9    4   34 1
  10    5    6 ar
  11    5   29 1
  12    6   35 1
  13    8    9 1
  14    9   10 ar
  15    9   14 ar
  16   10   11 ar
  17   10   15 1
  18   11   12 ar
  19   11   36 1
  20   12   13 ar
  21   12   37 1
  22   13   14 ar
  23   13   16 1
  24   14   38 1
  25   16   17 1
  26   17   18 1
  27   17   39 1
  28   17   40 1
  29   18   19 1
  30   18   22 2
  31   19   20 1
  32   20   21 2
  33   21   22 1
  34   21   23 1
  35   23   24 ar
  36   23   28 ar
  37   24   25 ar
  38   24   41 1
  39   25   26 ar
  40   25   42 1
  41   26   27 ar
  42   26   31 1
  43   27   28 ar
  44   27   43 1
  45   28   44 1
  46   29   30 3
  47   31   32 1
  48   32   45 1
  49   32   46 1
  50   32   47 1

#	End of record

