#	Name: ASD05153001
#	Creating user name:	WinNT
#	Creation time:	15. 06. 2019 20:57

#	Modifying user name:	WinNT
#	Modification time:	15. 06. 2019 20:57

#	Program:	/corina/corina34_cracker 3.40 0067  02.08.2006

@<TRIPOS>MOLECULE
ASD05153001
  87   90    0    0    0
SMALL
NO_CHARGES


@<TRIPOS>ATOM
   1 C1            -0.0144     1.2086     0.0087 C.2     
   2 O2             0.0021    -0.0041     0.0020 O.2     
   3 N3             2.3715     1.1097     0.4591 N.3     
   4 C4             1.2803     1.9798     0.0005 C.3     
   5 C5             1.5768     2.4636    -1.4204 C.3     
   6 C6             2.8047     3.3371    -1.4077 C.2     
   7 C7             3.9101     3.1594    -2.1562 C.2     
   8 N8             4.7732     4.1718    -1.8344 N.pl3   
   9 C9             4.1649     4.9335    -0.8998 C.2     
  10 N10            2.9859     4.4312    -0.6533 N.2     
  11 C11           -3.5426     1.9694    -0.5709 C.2     
  12 O12           -3.2948     3.0926    -0.9556 O.2     
  13 N13           -1.1906     1.8666     0.0178 N.am    
  14 C14           -2.4492     1.1169     0.0197 C.3     
  15 C15           -2.8163     0.7401     1.4565 C.3     
  16 C16           -1.7846    -0.2115     2.0054 C.ar    
  17 C17           -0.6725     0.2793     2.6635 C.ar    
  18 C18            0.2738    -0.5936     3.1670 C.ar    
  19 C19            0.1078    -1.9572     3.0127 C.ar    
  20 C20           -1.0049    -2.4480     2.3554 C.ar    
  21 C21           -1.9533    -1.5753     1.8557 C.ar    
  22 C22           -7.1934     1.8552    -0.7166 C.2     
  23 O23           -7.2513     0.9284     0.0635 O.2     
  24 N24           -4.7957     1.4837    -0.6717 N.am    
  25 C25           -5.8586     2.3124    -1.2459 C.3     
  26 C26           -5.8417     2.1796    -2.7700 C.3     
  27 C27           -4.5360     2.7591    -3.3180 C.3     
  28 C28           -4.5191     2.6263    -4.8421 C.3     
  29 N29           -3.2688     3.1811    -5.3668 N.pl3   
  30 C30           -3.0275     3.1724    -6.7203 C.2     
  31 N31           -3.9111     2.6705    -7.5366 N.2     
  32 N32           -1.8542     3.6930    -7.2127 N.pl3   
  33 C33          -10.1289     0.8881    -1.4349 C.2     
  34 O34           -9.4743     0.4855    -2.3673 O.2     
  35 N35           -8.3230     2.4763    -1.1101 N.am    
  36 C36           -9.6207     2.0318    -0.5955 C.3     
  37 C37          -10.6174     3.1910    -0.6559 C.3     
  38 C38          -10.1717     4.2859     0.2788 C.2     
  39 C39          -10.5785     4.4698     1.5447 C.2     
  40 N40           -9.9579     5.5657     2.0797 N.pl3   
  41 C41           -9.1151     6.1281     1.1473 C.ar    
  42 C42           -8.2652     7.2289     1.1654 C.ar    
  43 C43           -7.5308     7.5449     0.0432 C.ar    
  44 C44           -7.6299     6.7753    -1.1075 C.ar    
  45 C45           -8.4592     5.6897    -1.1474 C.ar    
  46 C46           -9.2076     5.3477    -0.0198 C.ar    
  47 O47          -11.3087     0.3166    -1.1468 O.3     
  48 H48            2.2312     0.8288     1.4180 H       
  49 H49            2.4700     0.3057    -0.1425 H       
  50 H50            1.1960     2.8385     0.6665 H       
  51 H51            1.7489     1.6042    -2.0684 H       
  52 H52            0.7276     3.0359    -1.7939 H       
  53 H53            4.0825     2.3697    -2.8724 H       
  54 H54            5.6569     4.3154    -2.2079 H       
  55 H55            4.5831     5.8148    -0.4363 H       
  56 H56           -1.2037     2.8365     0.0232 H       
  57 H57           -2.3335     0.2109    -0.5752 H       
  58 H58           -2.8450     1.6393     2.0719 H       
  59 H59           -3.7951     0.2607     1.4676 H       
  60 H60           -0.5428     1.3447     2.7841 H       
  61 H61            1.1431    -0.2101     3.6806 H       
  62 H62            0.8474    -2.6391     3.4055 H       
  63 H63           -1.1344    -3.5134     2.2345 H       
  64 H64           -2.8244    -1.9589     1.3453 H       
  65 H65           -4.9939     0.5854    -0.3641 H       
  66 H66           -5.6959     3.3544    -0.9701 H       
  67 H67           -5.9154     1.1272    -3.0439 H       
  68 H68           -6.6863     2.7247    -3.1916 H       
  69 H69           -4.4623     3.8115    -3.0442 H       
  70 H70           -3.6914     2.2140    -2.8964 H       
  71 H71           -4.5927     1.5738    -5.1160 H       
  72 H72           -5.3636     3.1713    -5.2637 H       
  73 H73           -2.6113     3.5545    -4.7593 H       
  74 H74           -3.7408     2.6644    -8.4915 H       
  75 H75           -1.1967     4.0665    -6.6052 H       
  76 H76           -1.6839     3.6869    -8.1676 H       
  77 H77           -8.2768     3.2176    -1.7340 H       
  78 H78           -9.5084     1.7026     0.4375 H       
  79 H79          -10.6630     3.5784    -1.6737 H       
  80 H80          -11.6043     2.8376    -0.3571 H       
  81 H81          -11.2905     3.8455     2.0640 H       
  82 H82          -10.0917     5.8970     2.9815 H       
  83 H83           -8.1814     7.8342     2.0559 H       
  84 H84           -6.8717     8.4003     0.0590 H       
  85 H85           -7.0474     7.0366    -1.9786 H       
  86 H86           -8.5315     5.0957    -2.0465 H       
  87 H87          -11.5929    -0.4136    -1.7135 H       
@<TRIPOS>BOND
   1    1    2 2
   2    1    4 1
   3    1   13 am
   4    3    4 1
   5    3   48 1
   6    3   49 1
   7    4    5 1
   8    4   50 1
   9    5    6 1
  10    5   51 1
  11    5   52 1
  12    6    7 2
  13    6   10 1
  14    7    8 1
  15    7   53 1
  16    8    9 1
  17    8   54 1
  18    9   10 2
  19    9   55 1
  20   11   12 2
  21   11   14 1
  22   11   24 am
  23   13   14 1
  24   13   56 1
  25   14   15 1
  26   14   57 1
  27   15   16 1
  28   15   58 1
  29   15   59 1
  30   16   17 ar
  31   16   21 ar
  32   17   18 ar
  33   17   60 1
  34   18   19 ar
  35   18   61 1
  36   19   20 ar
  37   19   62 1
  38   20   21 ar
  39   20   63 1
  40   21   64 1
  41   22   23 2
  42   22   25 1
  43   22   35 am
  44   24   25 1
  45   24   65 1
  46   25   26 1
  47   25   66 1
  48   26   27 1
  49   26   67 1
  50   26   68 1
  51   27   28 1
  52   27   69 1
  53   27   70 1
  54   28   29 1
  55   28   71 1
  56   28   72 1
  57   29   30 1
  58   29   73 1
  59   30   31 2
  60   30   32 1
  61   31   74 1
  62   32   75 1
  63   32   76 1
  64   33   34 2
  65   33   36 1
  66   33   47 1
  67   35   36 1
  68   35   77 1
  69   36   37 1
  70   36   78 1
  71   37   38 1
  72   37   79 1
  73   37   80 1
  74   38   39 2
  75   38   46 1
  76   39   40 1
  77   39   81 1
  78   40   41 1
  79   40   82 1
  80   41   42 ar
  81   41   46 ar
  82   42   43 ar
  83   42   83 1
  84   43   44 ar
  85   43   84 1
  86   44   45 ar
  87   44   85 1
  88   45   46 ar
  89   45   86 1
  90   47   87 1

#	End of record

