#	Name: ASD00990060
#	Creating user name:	WinNT
#	Creation time:	15. 06. 2019 18:54

#	Modifying user name:	WinNT
#	Modification time:	15. 06. 2019 18:54

#	Program:	/corina/corina34_cracker 3.40 0067  02.08.2006

@<TRIPOS>MOLECULE
ASD00990060
  31   30    0    0    0
SMALL
NO_CHARGES


@<TRIPOS>ATOM
   1 C1            -0.0170     1.4004     0.0097 C.ar    
   2 C2             0.0021    -0.0041     0.0020 C.ar    
   3 C3            -1.1902    -0.7149     0.0096 C.ar    
   4 C4            -2.3918    -0.0408     0.0247 C.ar    
   5 C5            -2.4188     1.3512     0.0324 C.ar    
   6 C6            -1.2421     2.0728     0.0301 C.ar    
   7 N7             1.2763     1.8141    -0.0004 N.2     
   8 C8             2.0666     0.7805    -0.0135 C.2     
   9 N9             1.3361    -0.3666    -0.0127 N.pl3   
  10 C10            3.5722     0.8451    -0.0283 C.3     
  11 N11            4.0423     0.9942    -1.4120 N.3     
  12 C12            5.5088     1.0607    -1.4655 C.3     
  13 O13           -3.6116     2.0038     0.0473 O.3     
  14 C14           -4.7918     1.1982     0.0542 C.3     
  15 F15           -4.7943     0.3845     1.1922 F       
  16 F16           -5.9205     2.0247     0.0695 F       
  17 F17           -4.8161     0.3967    -1.0922 F       
  18 H18           -1.1761    -1.7948     0.0033 H       
  19 H19           -3.3184    -0.5956     0.0302 H       
  20 H20           -1.2681     3.1524     0.0362 H       
  21 H21            1.6861    -1.2712    -0.0206 H       
  22 H22            3.9051     1.6985     0.5625 H       
  23 H23            3.9794    -0.0722     0.3970 H       
  24 H24            3.6927     0.2485    -1.9950 H       
  25 H25            5.8300     1.1710    -2.5012 H       
  26 H26            5.8551     1.9156    -0.8847 H       
  27 H27            5.9295     0.1449    -1.0502 H       
  28 Cl28          10.9295     8.1524     6.1922 Cl      
  29 H29           10.9295     9.5224     6.1922 H       
  30 Cl30          15.9295    14.5224    11.1922 Cl      
  31 H31           15.9295    15.8924    11.1922 H       
@<TRIPOS>BOND
   1    1    2 ar
   2    1    7 1
   3    1    6 ar
   4    2    3 ar
   5    2    9 1
   6    3    4 ar
   7    3   18 1
   8    4    5 ar
   9    4   19 1
  10    5    6 ar
  11    5   13 1
  12    6   20 1
  13    7    8 2
  14    8    9 1
  15    8   10 1
  16    9   21 1
  17   10   11 1
  18   10   22 1
  19   10   23 1
  20   11   12 1
  21   11   24 1
  22   12   25 1
  23   12   26 1
  24   12   27 1
  25   13   14 1
  26   14   15 1
  27   14   16 1
  28   14   17 1
  29   28   29 1
  30   30   31 1

#	End of record

