#	Name: ASD01883385
#	Creating user name:	WinNT
#	Creation time:	15. 06. 2019 19:46

#	Modifying user name:	WinNT
#	Modification time:	15. 06. 2019 19:46

#	Program:	/corina/corina34_cracker 3.40 0067  02.08.2006

@<TRIPOS>MOLECULE
ASD01883385
  59   62    0    0    0
SMALL
NO_CHARGES


@<TRIPOS>ATOM
   1 N1            -0.3834     1.9169     0.1081 N.am    
   2 C2            -1.0596     1.7403     1.2584 C.2     
   3 C3            -2.2090     0.9154     1.2816 C.2     
   4 C4            -2.6188     0.2954     0.0892 C.2     
   5 C5            -1.8703     0.5189    -1.0813 C.2     
   6 C6            -0.7839     1.3209    -1.0451 C.2     
   7 O7            -0.6819     2.2900     2.2792 O.2     
   8 C8            -2.9400     0.7161     2.4967 C.1     
   9 N9            -3.5199     0.5580     3.4607 N.1     
  10 C10            0.8047     2.7740     0.0981 C.3     
  11 C11            2.0442     1.9311     0.4048 C.3     
  12 C12            3.2850     2.8262     0.3944 C.3     
  13 N13           -3.7311    -0.5157     0.0665 N.pl3   
  14 C14           -5.0663     0.0257     0.3623 C.3     
  15 C15           -6.0194    -0.3868    -0.7645 C.3     
  16 N16           -5.9647    -1.8444    -0.9388 N.3     
  17 C17           -4.6259    -2.2812    -1.3566 C.3     
  18 C18           -3.6165    -1.9452    -0.2601 C.3     
  19 C19            3.1921     3.8399     1.5366 C.3     
  20 C20            4.5365     1.9652     0.5772 C.3     
  21 C21           -6.9293    -2.2735    -1.8353 C.ar    
  22 C22           -7.5980    -3.5032    -1.6396 C.ar    
  23 C23           -8.5753    -3.8812    -2.5969 C.ar    
  24 C24           -8.8104    -3.0063    -3.6736 C.ar    
  25 N25           -8.1253    -1.8887    -3.7495 N.ar    
  26 N26           -7.2456    -1.5383    -2.8871 N.ar    
  27 C27           -9.8342    -3.3476    -4.7254 C.3     
  28 C28           -7.3331    -4.3445    -0.5541 C.ar    
  29 C29           -8.0193    -5.5168    -0.4324 C.ar    
  30 C30           -8.9786    -5.8888    -1.3713 C.ar    
  31 C31           -9.2621    -5.0921    -2.4406 C.ar    
  32 H32           -2.1666     0.0523    -2.0092 H       
  33 H33           -0.2172     1.4850    -1.9497 H       
  34 H34            0.9123     3.2344    -0.8840 H       
  35 H35            0.6980     3.5518     0.8543 H       
  36 H36            1.9365     1.4706     1.3869 H       
  37 H37            2.1509     1.1533    -0.3514 H       
  38 H38            3.3435     3.3550    -0.5569 H       
  39 H39           -5.4233    -0.3778     1.3099 H       
  40 H40           -5.0160     1.1130     0.4198 H       
  41 H41           -7.0361    -0.0889    -0.5081 H       
  42 H42           -5.7196     0.1019    -1.6915 H       
  43 H43           -4.6321    -3.3574    -1.5298 H       
  44 H44           -4.3456    -1.7662    -2.2755 H       
  45 H45           -2.6079    -2.1623    -0.6118 H       
  46 H46           -3.8322    -2.5364     0.6299 H       
  47 H47            4.0761     4.4776     1.5292 H       
  48 H48            2.3005     4.4533     1.4064 H       
  49 H49            3.1336     3.3111     2.4879 H       
  50 H50            4.6026     1.2430    -0.2365 H       
  51 H51            5.4204     2.6028     0.5698 H       
  52 H52            4.4779     1.4363     1.5285 H       
  53 H53          -10.8050    -2.9492    -4.4303 H       
  54 H54           -9.5362    -2.9098    -5.6781 H       
  55 H55           -9.9020    -4.4306    -4.8286 H       
  56 H56           -6.5915    -4.0684     0.1810 H       
  57 H57           -7.8153    -6.1674     0.4052 H       
  58 H58           -9.5068    -6.8229    -1.2499 H       
  59 H59          -10.0086    -5.3922    -3.1611 H       
@<TRIPOS>BOND
   1    1    2 am
   2    1   10 1
   3    1    6 1
   4    2    3 1
   5    2    7 2
   6    3    4 2
   7    3    8 1
   8    4    5 1
   9    4   13 1
  10    5    6 2
  11    5   32 1
  12    6   33 1
  13    8    9 3
  14   10   11 1
  15   10   34 1
  16   10   35 1
  17   11   12 1
  18   11   36 1
  19   11   37 1
  20   12   19 1
  21   12   20 1
  22   12   38 1
  23   13   14 1
  24   13   18 1
  25   14   15 1
  26   14   39 1
  27   14   40 1
  28   15   16 1
  29   15   41 1
  30   15   42 1
  31   16   17 1
  32   16   21 1
  33   17   18 1
  34   17   43 1
  35   17   44 1
  36   18   45 1
  37   18   46 1
  38   19   47 1
  39   19   48 1
  40   19   49 1
  41   20   50 1
  42   20   51 1
  43   20   52 1
  44   21   22 ar
  45   21   26 ar
  46   22   23 ar
  47   22   28 ar
  48   23   24 ar
  49   23   31 ar
  50   24   25 ar
  51   24   27 1
  52   25   26 ar
  53   27   53 1
  54   27   54 1
  55   27   55 1
  56   28   29 ar
  57   28   56 1
  58   29   30 ar
  59   29   57 1
  60   30   31 ar
  61   30   58 1
  62   31   59 1

#	End of record

