#	Name: ASD00842160
#	Creating user name:	WinNT
#	Creation time:	15. 06. 2019 18:43

#	Modifying user name:	WinNT
#	Modification time:	15. 06. 2019 18:43

#	Program:	/corina/corina34_cracker 3.40 0067  02.08.2006

@<TRIPOS>MOLECULE
ASD00842160
  95  100    0    0    0
SMALL
NO_CHARGES


@<TRIPOS>ATOM
   1 F1             6.0484    -1.6560    -2.0443 F       
   2 C2             0.9590     1.5332    -0.4391 C.ar    
   3 C3             1.2738     0.2012    -0.6642 C.ar    
   4 C4             1.2257    -0.7072     0.3835 C.ar    
   5 C5             0.8647    -0.2834     1.6475 C.ar    
   6 C6             0.5508     1.0450     1.8693 C.ar    
   7 C7             0.5984     1.9522     0.8272 C.ar    
   8 C8             1.5667    -2.1552     0.1423 C.3     
   9 C9             1.3206    -2.9730     1.3920 C.2     
  10 C10            0.7523    -2.7082    -1.0289 C.3     
  11 C11           -0.7157    -2.4902    -0.7674 C.2     
  12 N12           -1.6335    -2.9925    -1.6170 N.am    
  13 O13           -1.0713    -1.8627     0.2077 O.2     
  14 C14           -3.0638    -2.6968    -1.4442 C.3     
  15 C15           -3.6208    -2.1897    -2.7787 C.3     
  16 N16           -3.3106    -3.1613    -3.8360 N.3     
  17 C17           -1.8603    -3.2983    -4.0250 C.3     
  18 C18           -1.2306    -3.8459    -2.7452 C.3     
  19 C19           -3.9737    -2.7983    -5.0956 C.3     
  20 C20           -3.5300    -3.7586    -6.2026 C.3     
  21 C21           -4.2698    -3.4136    -7.4971 C.3     
  22 N22           -5.7178    -3.5247    -7.2794 N.3     
  23 C23           -6.1747    -2.5783    -6.2537 C.3     
  24 C24           -5.4917    -2.8983    -4.9220 C.3     
  25 C25           -6.4552    -3.3357    -8.5358 C.3     
  26 O26            0.2575    -3.1237     1.9561 O.2     
  27 N27            2.5001    -3.5012     1.7592 N.am    
  28 C28            3.0478    -2.3145    -0.1168 C.ar    
  29 C29            3.5352    -3.1348     0.8955 C.ar    
  30 C30            3.8817    -1.8208    -1.0957 C.ar    
  31 C31            5.2288    -2.1383    -1.0847 C.ar    
  32 C32            5.7366    -2.9618    -0.0747 C.ar    
  33 C33            4.8867    -3.4585     0.9132 C.ar    
  34 C34            2.4569    -6.1365     2.5514 C.ar    
  35 C35            1.2111    -6.5418     2.0953 C.ar    
  36 C36            3.5057    -7.0354     2.5829 C.ar    
  37 C37            3.3144    -8.3376     2.1599 C.ar    
  38 C38            2.0735    -8.7441     1.7048 C.ar    
  39 C39            1.0217    -7.8494     1.6718 C.ar    
  40 H40            1.9266    -9.7619     1.3749 H       
  41 O41            0.1778    -5.6596     2.0637 O.3     
  42 C42           -1.0764    -6.1465     1.5821 C.3     
  43 C43           -7.9459    -3.5811    -8.2941 C.3     
  44 C44           -6.2486    -1.9054    -9.0382 C.3     
  45 O45            1.6283    -0.2134    -1.9089 O.3     
  46 C46            2.0775     0.1347    -4.2578 C.3     
  47 C47            1.5474     0.7500    -2.9612 C.3     
  48 S48            2.7034    -4.4749     3.0832 S.o2    
  49 O49            4.0718    -4.3704     3.4517 O.2     
  50 O50            1.6346    -4.1747     3.9701 O.2     
  51 C51            7.1290    -3.2955    -0.0553 C.1     
  52 N52            8.2336    -3.5603    -0.0400 N.1     
  53 H53            1.0000     2.2431    -1.2520 H       
  54 H54            0.8271    -0.9901     2.4633 H       
  55 H55            0.2681     1.3743     2.8582 H       
  56 H56            0.3528     2.9891     1.0029 H       
  57 H57            1.0385    -2.1929    -1.9458 H       
  58 H58            0.9478    -3.7752    -1.1357 H       
  59 H59           -3.5919    -3.6031    -1.1478 H       
  60 H60           -3.1895    -1.9299    -0.6799 H       
  61 H61           -4.7013    -2.0703    -2.7001 H       
  62 H62           -3.1651    -1.2298    -3.0218 H       
  63 H63           -1.6641    -3.9829    -4.8502 H       
  64 H64           -1.4291    -2.3230    -4.2507 H       
  65 H65           -0.1448    -3.8413    -2.8403 H       
  66 H66           -1.5814    -4.8630    -2.5706 H       
  67 H67           -3.7037    -1.7781    -5.3685 H       
  68 H68           -2.4559    -3.6609    -6.3603 H       
  69 H69           -3.7641    -4.7826    -5.9115 H       
  70 H70           -4.0245    -2.3942    -7.7951 H       
  71 H71           -3.9668    -4.1046    -8.2838 H       
  72 H72           -5.9204    -1.5628    -6.5574 H       
  73 H73           -7.2551    -2.6626    -6.1372 H       
  74 H74           -5.7566    -3.9088    -4.6108 H       
  75 H75           -5.8191    -2.1860    -4.1647 H       
  76 H76           -6.0874    -4.0397    -9.2823 H       
  77 H77            3.4838    -1.1854    -1.8730 H       
  78 H78            5.2792    -4.0943     1.6929 H       
  79 H79            4.4758    -6.7204     2.9379 H       
  80 H80            4.1357    -9.0386     2.1847 H       
  81 H81            0.0525    -8.1676     1.3169 H       
  82 H82           -0.9601    -6.4982     0.5570 H       
  83 H83           -1.4130    -6.9695     2.2126 H       
  84 H84           -1.8126    -5.3432     1.6094 H       
  85 H85           -8.4930    -3.4409    -9.2264 H       
  86 H86           -8.0931    -4.6001    -7.9362 H       
  87 H87           -8.3137    -2.8771    -7.5476 H       
  88 H88           -5.1866    -1.7306    -9.2104 H       
  89 H89           -6.7957    -1.7652    -9.9705 H       
  90 H90           -6.6164    -1.2014    -8.2917 H       
  91 H91            2.0976     0.8946    -5.0390 H       
  92 H92            3.0861    -0.2448    -4.0941 H       
  93 H93            1.4265    -0.6841    -4.5642 H       
  94 H94            0.5088     1.0504    -3.0997 H       
  95 H95            2.1466     1.6227    -2.7016 H       
@<TRIPOS>BOND
   1    1   31 1
   2    2    3 ar
   3    2    7 ar
   4    2   53 1
   5    3    4 ar
   6    3   45 1
   7    4    5 ar
   8    4    8 1
   9    5    6 ar
  10    5   54 1
  11    6    7 ar
  12    6   55 1
  13    7   56 1
  14    8    9 1
  15    8   10 1
  16    8   28 1
  17    9   26 2
  18    9   27 am
  19   10   11 1
  20   10   57 1
  21   10   58 1
  22   11   12 am
  23   11   13 2
  24   12   14 1
  25   12   18 1
  26   14   15 1
  27   14   59 1
  28   14   60 1
  29   15   16 1
  30   15   61 1
  31   15   62 1
  32   16   17 1
  33   16   19 1
  34   17   18 1
  35   17   63 1
  36   17   64 1
  37   18   65 1
  38   18   66 1
  39   19   20 1
  40   19   24 1
  41   19   67 1
  42   20   21 1
  43   20   68 1
  44   20   69 1
  45   21   22 1
  46   21   70 1
  47   21   71 1
  48   22   23 1
  49   22   25 1
  50   23   24 1
  51   23   72 1
  52   23   73 1
  53   24   74 1
  54   24   75 1
  55   25   43 1
  56   25   44 1
  57   25   76 1
  58   27   48 am
  59   27   29 1
  60   28   29 ar
  61   28   30 ar
  62   29   33 ar
  63   30   31 ar
  64   30   77 1
  65   31   32 ar
  66   32   33 ar
  67   32   51 1
  68   33   78 1
  69   34   35 ar
  70   34   36 ar
  71   34   48 1
  72   35   41 1
  73   35   39 ar
  74   36   37 ar
  75   36   79 1
  76   37   38 ar
  77   37   80 1
  78   38   39 ar
  79   38   40 1
  80   39   81 1
  81   41   42 1
  82   42   82 1
  83   42   83 1
  84   42   84 1
  85   43   85 1
  86   43   86 1
  87   43   87 1
  88   44   88 1
  89   44   89 1
  90   44   90 1
  91   45   47 1
  92   46   47 1
  93   46   91 1
  94   46   92 1
  95   46   93 1
  96   47   94 1
  97   47   95 1
  98   48   49 2
  99   48   50 2
 100   51   52 3

#	End of record

