#	Name: ASD05430606
#	Creating user name:	WinNT
#	Creation time:	15. 06. 2019 21:00

#	Modifying user name:	WinNT
#	Modification time:	15. 06. 2019 21:00

#	Program:	/corina/corina34_cracker 3.40 0067  02.08.2006

@<TRIPOS>MOLECULE
ASD05430606
  21   21    0    0    0
SMALL
NO_CHARGES


@<TRIPOS>ATOM
   1 N1            -0.0156     1.3005     0.0092 N.2     
   2 C2             0.0021    -0.0041     0.0020 C.2     
   3 N3             1.2880    -0.4202    -0.0125 N.pl3   
   4 C4             2.0757     0.6992    -0.0140 C.2     
   5 C5             1.2447     1.7605    -0.0004 C.2     
   6 C6             1.7519    -1.8097    -0.0240 C.3     
   7 C7             1.2409    -2.5284     1.2264 C.3     
   8 C8             1.2178    -2.5155    -1.2720 C.3     
   9 C9             1.6587     3.2095     0.0035 C.3     
  10 Cl10           3.8110     0.7436    -0.0303 Cl      
  11 H11           -0.8669    -0.6453     0.0074 H       
  12 H12            2.8417    -1.8288    -0.0341 H       
  13 H13            1.5861    -3.5622     1.2178 H       
  14 H14            1.6215    -2.0256     2.1155 H       
  15 H15            0.1511    -2.5093     1.2366 H       
  16 H16            1.5819    -2.0035    -2.1627 H       
  17 H17            1.5630    -3.5494    -1.2805 H       
  18 H18            0.1280    -2.4964    -1.2618 H       
  19 H19            1.7487     3.5644    -1.0232 H       
  20 H20            0.9077     3.8005     0.5277 H       
  21 H21            2.6191     3.3116     0.5087 H       
@<TRIPOS>BOND
   1    1    2 2
   2    1    5 1
   3    2    3 1
   4    2   11 1
   5    3    4 1
   6    3    6 1
   7    4    5 2
   8    4   10 1
   9    5    9 1
  10    6    7 1
  11    6    8 1
  12    6   12 1
  13    7   13 1
  14    7   14 1
  15    7   15 1
  16    8   16 1
  17    8   17 1
  18    8   18 1
  19    9   19 1
  20    9   20 1
  21    9   21 1

#	End of record

