#	Name: ASD01560026
#	Creating user name:	WinNT
#	Creation time:	15. 06. 2019 19:22

#	Modifying user name:	WinNT
#	Modification time:	15. 06. 2019 19:22

#	Program:	/corina/corina34_cracker 3.40 0067  02.08.2006

@<TRIPOS>MOLECULE
ASD01560026
  40   42    0    0    0
SMALL
NO_CHARGES


@<TRIPOS>ATOM
   1 O1             0.0021    -0.0041     0.0020 O.2     
   2 C2            -0.0144     1.2117     0.0087 C.2     
   3 N3             1.1471     1.8906     0.0013 N.am    
   4 C4             1.1546     3.2600     0.0090 C.2     
   5 C5             2.4615     4.0103     0.0005 C.3     
   6 S6             3.2207     3.9182     1.6411 S.3     
   7 C7             4.6879     4.8501     1.3520 C.2     
   8 N8             5.5890     5.0384     2.3716 N.am    
   9 C9             6.7142     5.7505     2.1579 C.2     
  10 O10            7.5124     5.9178     3.0594 O.2     
  11 N11            6.9485     6.2750     0.9391 N.am    
  12 C12            6.0400     6.0784    -0.0697 C.2     
  13 N13            4.9162     5.3564     0.1602 N.2     
  14 C14            6.5325     6.7193    -1.1878 C.2     
  15 C15            7.7494     7.3036    -0.8373 C.2     
  16 N16            7.9981     7.0420     0.4216 N.2     
  17 C17            8.6339     8.1053    -1.7572 C.3     
  18 C18            8.0224     9.4911    -1.9730 C.3     
  19 C19           10.0217     8.2522    -1.1302 C.3     
  20 C20            8.7555     7.3864    -3.1023 C.3     
  21 C21           -0.0152     3.9348     0.0238 C.2     
  22 C22           -1.2304     3.2069     0.0310 C.2     
  23 O23           -2.2979     3.7930     0.0440 O.2     
  24 N24           -1.1944     1.8590     0.0179 N.am    
  25 Cl25          -0.0294     5.6707     0.0344 Cl      
  26 H26            1.9871     1.4056    -0.0094 H       
  27 H27            3.1313     3.5651    -0.7352 H       
  28 H28            2.2800     5.0535    -0.2577 H       
  29 H29            5.4155     4.6586     3.2472 H       
  30 H30            6.0613     6.7606    -2.1587 H       
  31 H31            7.9358    10.0032    -1.0147 H       
  32 H32            8.6621    10.0709    -2.6383 H       
  33 H33            7.0337     9.3864    -2.4196 H       
  34 H34           10.4574     7.2650    -0.9764 H       
  35 H35           10.6615     8.8321    -1.7955 H       
  36 H36            9.9351     8.7644    -0.1719 H       
  37 H37            7.7667     7.2817    -3.5490 H       
  38 H38            9.3952     7.9662    -3.7676 H       
  39 H39            9.1911     6.3992    -2.9486 H       
  40 H40           -2.0224     1.3537     0.0227 H       
@<TRIPOS>BOND
   1    1    2 2
   2    2    3 am
   3    2   24 am
   4    3    4 1
   5    3   26 1
   6    4    5 1
   7    4   21 2
   8    5    6 1
   9    5   27 1
  10    5   28 1
  11    6    7 1
  12    7    8 1
  13    7   13 2
  14    8    9 am
  15    8   29 1
  16    9   10 2
  17    9   11 am
  18   11   12 1
  19   11   16 1
  20   12   13 1
  21   12   14 2
  22   14   15 1
  23   14   30 1
  24   15   16 2
  25   15   17 1
  26   17   18 1
  27   17   19 1
  28   17   20 1
  29   18   31 1
  30   18   32 1
  31   18   33 1
  32   19   34 1
  33   19   35 1
  34   19   36 1
  35   20   37 1
  36   20   38 1
  37   20   39 1
  38   21   22 1
  39   21   25 1
  40   22   23 2
  41   22   24 am
  42   24   40 1

#	End of record

