#	Name: ASD01918200
#	Creating user name:	WinNT
#	Creation time:	15. 06. 2019 20:11

#	Modifying user name:	WinNT
#	Modification time:	15. 06. 2019 20:11

#	Program:	/corina/corina34_cracker 3.40 0067  02.08.2006

@<TRIPOS>MOLECULE
ASD01918200
  36   38    0    0    0
SMALL
NO_CHARGES


@<TRIPOS>ATOM
   1 N1            -0.0073     1.3874    -0.9018 N.ar    
   2 C2             0.0134     0.0914    -1.1298 C.ar    
   3 C3             1.2088    -0.6065    -1.1621 C.ar    
   4 C4             2.4001     0.0725    -0.9510 C.ar    
   5 C5             2.3511     1.4354    -0.7137 C.ar    
   6 C6             1.1106     2.0760    -0.6946 C.ar    
   7 N7             1.0452     3.4220    -0.4610 N.2     
   8 N8            -0.0983     4.0186    -0.4424 N.2     
   9 C9            -0.1636     5.3630    -0.2091 C.ar    
  10 C10           -1.4579     7.3749     0.0553 C.ar    
  11 C11           -1.4008     6.0108    -0.1825 C.ar    
  12 C12            1.0077     6.0952     0.0099 C.ar    
  13 C13            0.9381     7.4524     0.2456 C.ar    
  14 C14           -0.2869     8.0938     0.2665 C.ar    
  15 N15           -2.6940     8.0286     0.0826 N.am    
  16 C16           -3.7760     7.4033     0.5874 C.2     
  17 O17           -3.6976     6.2432     0.9407 O.2     
  18 C18           -5.0607     8.1302     0.7115 C.ar    
  19 C19           -7.4093     9.4930     0.9274 C.ar    
  20 C20           -6.2627    10.0766     0.4118 C.ar    
  21 N21           -5.1416     9.3958     0.3188 N.ar    
  22 C22           -6.1753     7.4784     1.2340 C.ar    
  23 C23           -7.3706     8.1717     1.3440 C.ar    
  24 H24           -0.9152    -0.4352    -1.2939 H       
  25 H25            1.2138    -1.6701    -1.3495 H       
  26 H26            3.3447    -0.4507    -0.9711 H       
  27 H27            3.2593     1.9950    -0.5450 H       
  28 H28           -2.3094     5.4507    -0.3471 H       
  29 H29            1.9664     5.5981    -0.0053 H       
  30 H30            1.8436     8.0162     0.4148 H       
  31 H31           -0.3343     9.1568     0.4512 H       
  32 H32           -2.7727     8.9320    -0.2619 H       
  33 H33           -8.3251    10.0609     0.9996 H       
  34 H34           -6.2893    11.1060     0.0862 H       
  35 H35           -6.1093     6.4474     1.5487 H       
  36 H36           -8.2506     7.6945     1.7492 H       
@<TRIPOS>BOND
   1    1    2 ar
   2    1    6 ar
   3    2    3 ar
   4    2   24 1
   5    3    4 ar
   6    3   25 1
   7    4    5 ar
   8    4   26 1
   9    5    6 ar
  10    5   27 1
  11    6    7 1
  12    7    8 2
  13    8    9 1
  14    9   12 ar
  15    9   11 ar
  16   10   11 ar
  17   10   14 ar
  18   10   15 1
  19   11   28 1
  20   12   13 ar
  21   12   29 1
  22   13   14 ar
  23   13   30 1
  24   14   31 1
  25   15   16 am
  26   15   32 1
  27   16   17 2
  28   16   18 1
  29   18   22 ar
  30   18   21 ar
  31   19   20 ar
  32   19   23 ar
  33   19   33 1
  34   20   21 ar
  35   20   34 1
  36   22   23 ar
  37   22   35 1
  38   23   36 1

#	End of record

