#	Name: ASD01913767
#	Creating user name:	WinNT
#	Creation time:	15. 06. 2019 20:02

#	Modifying user name:	WinNT
#	Modification time:	15. 06. 2019 20:02

#	Program:	/corina/corina34_cracker 3.40 0067  02.08.2006

@<TRIPOS>MOLECULE
ASD01913767
  51   52    0    0    0
SMALL
NO_CHARGES


@<TRIPOS>ATOM
   1 O1            -0.0163     1.3508     0.0095 O.3     
   2 C2             0.0021    -0.0041     0.0020 C.ar    
   3 C3            -1.1990    -0.7061     0.0097 C.ar    
   4 C4            -1.1741    -2.0858     0.0021 C.ar    
   5 C5             0.0719    -2.7294    -0.0133 C.ar    
   6 C6             1.2332    -1.9554    -0.0202 C.ar    
   7 N7             1.1631    -0.6409    -0.0179 N.ar    
   8 C8             0.1537    -4.2032    -0.0215 C.2     
   9 N9             1.3564    -4.8113    -0.0363 N.am    
  10 O10           -0.8638    -4.8687    -0.0150 O.2     
  11 C11            1.2480     2.0168     0.0010 C.3     
  12 C12            1.0303     3.5080     0.0111 C.ar    
  13 C13            2.1183     4.3684     0.0053 C.ar    
  14 C14            1.9145     5.7408     0.0141 C.ar    
  15 C15            0.6295     6.2469     0.0286 C.ar    
  16 C16           -0.4536     5.3871     0.0348 C.ar    
  17 C17           -0.2532     4.0193     0.0203 C.ar    
  18 C18            1.4377    -6.2740    -0.0444 C.3     
  19 C19            2.7653    -6.7076    -0.6692 C.3     
  20 C20            1.3544    -6.7974     1.3909 C.3     
  21 O21            3.3817     3.8679    -0.0085 O.3     
  22 C22            4.4538     4.8128    -0.0138 C.3     
  23 C23            3.9248    -6.1370     0.1499 C.3     
  24 C24            2.8501    -8.2352    -0.6777 C.3     
  25 C25            2.8486    -6.1842    -2.1044 C.3     
  26 H26           -2.1406    -0.1771     0.0219 H       
  27 H27           -2.0913    -2.6559     0.0081 H       
  28 H28            2.1986    -2.4396    -0.0317 H       
  29 H29            2.1682    -4.2804    -0.0415 H       
  30 H30            1.8174     1.7268     0.8840 H       
  31 H31            1.8004     1.7363    -0.8958 H       
  32 H32            2.7600     6.4128     0.0100 H       
  33 H33            0.4703     7.3151     0.0355 H       
  34 H34           -1.4576     5.7848     0.0469 H       
  35 H35           -1.1007     3.3498     0.0252 H       
  36 H36            0.6116    -6.6806    -0.6279 H       
  37 H37            2.1804    -6.3909     1.9744 H       
  38 H38            0.4086    -6.4886     1.8360 H       
  39 H39            1.4148    -7.8858     1.3848 H       
  40 H40            5.4058     4.2821    -0.0249 H       
  41 H41            4.3785     5.4427    -0.9001 H       
  42 H42            4.3947     5.4342     0.8798 H       
  43 H43            3.8655    -6.5099     1.1724 H       
  44 H44            4.8706    -6.4459    -0.2952 H       
  45 H45            3.8644    -5.0487     0.1559 H       
  46 H46            2.0240    -8.6418    -1.2612 H       
  47 H47            3.7959    -8.5441    -1.1228 H       
  48 H48            2.7908    -8.6081     0.3448 H       
  49 H49            2.7881    -5.0959    -2.0984 H       
  50 H50            3.7944    -6.4931    -2.5495 H       
  51 H51            2.0225    -6.5907    -2.6879 H       
@<TRIPOS>BOND
   1    1    2 1
   2    1   11 1
   3    2    3 ar
   4    2    7 ar
   5    3    4 ar
   6    3   26 1
   7    4    5 ar
   8    4   27 1
   9    5    6 ar
  10    5    8 1
  11    6    7 ar
  12    6   28 1
  13    8    9 am
  14    8   10 2
  15    9   18 1
  16    9   29 1
  17   11   12 1
  18   11   30 1
  19   11   31 1
  20   12   13 ar
  21   12   17 ar
  22   13   14 ar
  23   13   21 1
  24   14   15 ar
  25   14   32 1
  26   15   16 ar
  27   15   33 1
  28   16   17 ar
  29   16   34 1
  30   17   35 1
  31   18   19 1
  32   18   20 1
  33   18   36 1
  34   19   23 1
  35   19   24 1
  36   19   25 1
  37   20   37 1
  38   20   38 1
  39   20   39 1
  40   21   22 1
  41   22   40 1
  42   22   41 1
  43   22   42 1
  44   23   43 1
  45   23   44 1
  46   23   45 1
  47   24   46 1
  48   24   47 1
  49   24   48 1
  50   25   49 1
  51   25   50 1
  52   25   51 1

#	End of record

