#	Name: ASD03090609
#	Creating user name:	WinNT
#	Creation time:	15. 06. 2019 20:29

#	Modifying user name:	WinNT
#	Modification time:	15. 06. 2019 20:29

#	Program:	/corina/corina34_cracker 3.40 0067  02.08.2006

@<TRIPOS>MOLECULE
ASD03090609
  35   36    0    0    0
SMALL
NO_CHARGES


@<TRIPOS>ATOM
   1 N1            -0.0162     1.3436     0.0094 N.am    
   2 C2             0.0207     0.1480     0.6305 C.2     
   3 O3             1.0747    -0.2838     1.0560 O.2     
   4 N4            -1.1107    -0.5690     0.7798 N.am    
   5 O5            -1.7320    -3.6108     2.2207 O.3     
   6 N6            -2.0808    -2.6095     1.6394 N.2     
   7 C7            -1.0724    -1.8063     1.4225 C.2     
   8 C8             0.0699    -2.4467     1.9722 C.2     
   9 C9            -0.4151    -3.6056     2.4730 C.2     
  10 C10            0.3710    -4.6811     3.1775 C.3     
  11 C11            1.1445     2.1283    -0.0716 C.ar    
  12 C12            1.0429     3.5108    -0.2005 C.ar    
  13 C13            2.1908     4.2840    -0.2805 C.ar    
  14 C14            3.4391     3.6788    -0.2319 C.ar    
  15 C15            3.5383     2.3003    -0.1039 C.ar    
  16 C16            2.3936     1.5275    -0.0177 C.ar    
  17 O17            4.5661     4.4374    -0.3104 O.3     
  18 C18            5.1117     4.9178     0.9199 C.3     
  19 O19           -0.1817     4.1023    -0.2484 O.3     
  20 C20           -0.7577     4.5031     0.9964 C.3     
  21 F21            4.7540     1.7128    -0.0572 F       
  22 F22            2.0945     5.6257    -0.4060 F       
  23 H23           -0.8440     1.6598    -0.3850 H       
  24 H24           -1.9515    -0.2246     0.4404 H       
  25 H25            1.0895    -2.0908     1.9867 H       
  26 H26           -0.2986    -5.4921     3.4638 H       
  27 H27            1.1415    -5.0650     2.5088 H       
  28 H28            0.8388    -4.2641     4.0693 H       
  29 H29            2.4727     0.4555     0.0868 H       
  30 H30            4.3740     5.5407     1.4258 H       
  31 H31            5.3714     4.0723     1.5569 H       
  32 H32            6.0057     5.5069     0.7154 H       
  33 H33           -1.7310     4.9595     0.8162 H       
  34 H34           -0.8788     3.6305     1.6384 H       
  35 H35           -0.1026     5.2249     1.4842 H       
@<TRIPOS>BOND
   1    1    2 am
   2    1   11 1
   3    1   23 1
   4    2    3 2
   5    2    4 am
   6    4    7 1
   7    4   24 1
   8    5    6 1
   9    5    9 1
  10    6    7 2
  11    7    8 1
  12    8    9 2
  13    8   25 1
  14    9   10 1
  15   10   26 1
  16   10   27 1
  17   10   28 1
  18   11   12 ar
  19   11   16 ar
  20   12   13 ar
  21   12   19 1
  22   13   14 ar
  23   13   22 1
  24   14   15 ar
  25   14   17 1
  26   15   16 ar
  27   15   21 1
  28   16   29 1
  29   17   18 1
  30   18   30 1
  31   18   31 1
  32   18   32 1
  33   19   20 1
  34   20   33 1
  35   20   34 1
  36   20   35 1

#	End of record

