#	Name: ASD01810963
#	Creating user name:	WinNT
#	Creation time:	15. 06. 2019 19:25

#	Modifying user name:	WinNT
#	Modification time:	15. 06. 2019 19:25

#	Program:	/corina/corina34_cracker 3.40 0067  02.08.2006

@<TRIPOS>MOLECULE
ASD01810963
  62   65    0    0    0
SMALL
NO_CHARGES


@<TRIPOS>ATOM
   1 C1            -7.3214     2.2133    -4.0019 C.1     
   2 C2            -6.3439     3.0075    -3.3204 C.ar    
   3 C3            -5.1730     2.4182    -2.8394 C.ar    
   4 C4            -4.2356     3.1893    -2.1838 C.ar    
   5 C5            -4.4538     4.5434    -2.0021 C.ar    
   6 C6            -5.6120     5.1338    -2.4758 C.ar    
   7 C7            -6.5547     4.3759    -3.1391 C.ar    
   8 N8            -8.0968     1.5832    -4.5424 N.1     
   9 N9            -2.4098     7.7982    -0.2276 N.am    
  10 C10           -1.8545     7.3097    -1.4972 C.3     
  11 C11           -2.9246     6.4838    -2.2180 C.3     
  12 C12           -3.4254     5.3792    -1.2846 C.3     
  13 C13           -4.0572     6.0078    -0.0405 C.3     
  14 C14           -3.0000     6.8284     0.7050 C.3     
  15 C15           -2.3735     9.1104     0.0781 C.2     
  16 C16           -3.0190     9.5994     1.3152 C.ar    
  17 C17           -3.9802    10.6109     1.2505 C.ar    
  18 C18           -4.5837    11.0684     2.4047 C.ar    
  19 C19           -4.2420    10.5301     3.6299 C.ar    
  20 C20           -3.2833     9.5185     3.7086 C.ar    
  21 C21           -2.6742     9.0484     2.5475 C.ar    
  22 O22           -1.8100     9.8917    -0.6632 O.2     
  23 C23           -4.9054    11.0365     4.8848 C.3     
  24 N24           -2.8680     8.5809     7.1164 N.2     
  25 N25           -3.4133     9.2864     6.1905 N.2     
  26 C26           -2.9184     8.9436     5.0222 C.2     
  27 N27           -2.0014     7.9538     5.2513 N.pl3   
  28 C28           -2.0007     7.7538     6.5973 C.2     
  29 C29           -1.1548     6.7599     7.3507 C.3     
  30 O30           -0.3323     6.0399     6.4303 O.3     
  31 C31            0.5138     5.0664     7.0454 C.3     
  32 C32           -4.3588    11.2043    -0.0820 C.3     
  33 C33           -5.3451    10.2751    -0.7924 C.3     
  34 H34           -5.0018     1.3612    -2.9799 H       
  35 H35           -3.3295     2.7348    -1.8112 H       
  36 H36           -5.7762     6.1912    -2.3303 H       
  37 H37           -7.4562     4.8388    -3.5126 H       
  38 H38           -1.5658     8.1566    -2.1196 H       
  39 H39           -0.9833     6.6855    -1.2988 H       
  40 H40           -3.7570     7.1301    -2.4961 H       
  41 H41           -2.4958     6.0359    -3.1144 H       
  42 H42           -2.5880     4.7480    -0.9869 H       
  43 H43           -4.8789     6.6587    -0.3391 H       
  44 H44           -4.4345     5.2212     0.6129 H       
  45 H45           -2.2221     6.1649     1.0830 H       
  46 H46           -3.4670     7.3577     1.5356 H       
  47 H47           -5.3260    11.8509     2.3494 H       
  48 H48           -1.9347     8.2633     2.6027 H       
  49 H49           -5.8035    10.4514     5.0825 H       
  50 H50           -4.2167    10.9399     5.7241 H       
  51 H51           -5.1757    12.0845     4.7553 H       
  52 H52           -1.4630     7.4905     4.5906 H       
  53 H53           -0.5237     7.2879     8.0656 H       
  54 H54           -1.8013     6.0621     7.8829 H       
  55 H55            1.1055     4.5639     6.2802 H       
  56 H56            1.1795     5.5593     7.7540 H       
  57 H57           -0.0981     4.3335     7.5712 H       
  58 H58           -4.8239    12.1779     0.0728 H       
  59 H59           -3.4649    11.3220    -0.6945 H       
  60 H60           -6.2390    10.1574    -0.1799 H       
  61 H61           -5.6189    10.7043    -1.7562 H       
  62 H62           -4.8800     9.3015    -0.9472 H       
@<TRIPOS>BOND
   1    1    2 1
   2    1    8 3
   3    2    3 ar
   4    2    7 ar
   5    3    4 ar
   6    3   34 1
   7    4    5 ar
   8    4   35 1
   9    5    6 ar
  10    5   12 1
  11    6    7 ar
  12    6   36 1
  13    7   37 1
  14    9   10 1
  15    9   14 1
  16    9   15 am
  17   10   11 1
  18   10   38 1
  19   10   39 1
  20   11   12 1
  21   11   40 1
  22   11   41 1
  23   12   13 1
  24   12   42 1
  25   13   14 1
  26   13   43 1
  27   13   44 1
  28   14   45 1
  29   14   46 1
  30   15   16 1
  31   15   22 2
  32   16   17 ar
  33   16   21 ar
  34   17   18 ar
  35   17   32 1
  36   18   19 ar
  37   18   47 1
  38   19   20 ar
  39   19   23 1
  40   20   21 ar
  41   20   26 1
  42   21   48 1
  43   23   49 1
  44   23   50 1
  45   23   51 1
  46   24   25 1
  47   24   28 2
  48   25   26 2
  49   26   27 1
  50   27   28 1
  51   27   52 1
  52   28   29 1
  53   29   30 1
  54   29   53 1
  55   29   54 1
  56   30   31 1
  57   31   55 1
  58   31   56 1
  59   31   57 1
  60   32   33 1
  61   32   58 1
  62   32   59 1
  63   33   60 1
  64   33   61 1
  65   33   62 1

#	End of record

