#	Name: ASD01840314
#	Creating user name:	WinNT
#	Creation time:	15. 06. 2019 19:37

#	Modifying user name:	WinNT
#	Modification time:	15. 06. 2019 19:37

#	Program:	/corina/corina34_cracker 3.40 0067  02.08.2006

@<TRIPOS>MOLECULE
ASD01840314
  50   54    0    0    0
SMALL
NO_CHARGES


@<TRIPOS>ATOM
   1 O1             0.0021    -0.0041     0.0020 O.2     
   2 C2            -0.0144     1.2113     0.0087 C.2     
   3 N3            -1.1275     1.9643     0.0292 N.am    
   4 C4            -0.7407     3.3795     0.0309 C.3     
   5 C5             0.7676     3.4055     0.0087 C.ar    
   6 C6             1.6904     4.4272     0.0000 C.ar    
   7 C7             3.0427     4.1409    -0.0224 C.ar    
   8 C8             3.4761     2.8150    -0.0358 C.ar    
   9 C9             2.5475     1.7783    -0.0267 C.ar    
  10 C10            1.1851     2.0712     0.0019 C.ar    
  11 C11            4.9266     2.5100    -0.0604 C.ar    
  12 N12            5.3845     1.4485     0.5811 N.ar    
  13 C13            6.6758     1.1399     0.5837 C.ar    
  14 C14            7.6040     1.9316    -0.0958 C.ar    
  15 C15            7.1686     3.0513    -0.7801 C.ar    
  16 C16            5.8043     3.3491    -0.7709 C.ar    
  17 C17            5.2892     4.5350    -1.4945 C.2     
  18 C18            4.2029     4.5566    -2.3928 C.2     
  19 N19            4.0569     5.7815    -2.8228 N.2     
  20 N20            5.0343     6.5843    -2.2227 N.pl3   
  21 C21            5.2146     8.0222    -2.4376 C.3     
  22 C22            5.3749     8.2981    -3.9339 C.3     
  23 C23            4.0340     8.0682    -4.6743 C.3     
  24 C24            4.1936     8.9352    -5.9478 C.3     
  25 C25            4.9397    10.1934    -5.4578 C.3     
  26 C26            5.6907     9.7884    -4.1773 C.3     
  27 C27            5.7764     5.8086    -1.4085 C.2     
  28 C28            7.1231    -0.0206     1.2935 C.1     
  29 N29            7.4778    -0.9413     1.8566 N.1     
  30 H30           -2.0371     1.6274     0.0406 H       
  31 H31           -1.1369     3.8772    -0.8542 H       
  32 H32           -1.1104     3.8677     0.9327 H       
  33 H33            1.3571     5.4544     0.0104 H       
  34 H34            3.7643     4.9444    -0.0298 H       
  35 H35            2.8813     0.7512    -0.0371 H       
  36 H36            8.6522     1.6718    -0.0867 H       
  37 H37            7.8673     3.6793    -1.3128 H       
  38 H38            3.5973     3.7085    -2.6764 H       
  39 H39            4.3434     8.5579    -2.0606 H       
  40 H40            6.1057     8.3598    -1.9083 H       
  41 H41            6.1585     7.6683    -4.3552 H       
  42 H42            3.9122     7.0170    -4.9354 H       
  43 H43            3.1953     8.4173    -4.0719 H       
  44 H44            4.7852     8.4082    -6.6964 H       
  45 H45            3.2173     9.2036    -6.3515 H       
  46 H46            5.6478    10.5268    -6.2164 H       
  47 H47            4.2268    10.9879    -5.2370 H       
  48 H48            5.3424    10.3863    -3.3352 H       
  49 H49            6.7634     9.9251    -4.3146 H       
  50 H50            6.6073     6.1340    -0.8001 H       
@<TRIPOS>BOND
   1    1    2 2
   2    2   10 1
   3    2    3 am
   4    3    4 1
   5    3   30 1
   6    4    5 1
   7    4   31 1
   8    4   32 1
   9    5   10 ar
  10    5    6 ar
  11    6    7 ar
  12    6   33 1
  13    7    8 ar
  14    7   34 1
  15    8    9 ar
  16    8   11 1
  17    9   10 ar
  18    9   35 1
  19   11   16 ar
  20   11   12 ar
  21   12   13 ar
  22   13   14 ar
  23   13   28 1
  24   14   15 ar
  25   14   36 1
  26   15   16 ar
  27   15   37 1
  28   16   17 1
  29   17   27 2
  30   17   18 1
  31   18   19 2
  32   18   38 1
  33   19   20 1
  34   20   21 1
  35   20   27 1
  36   21   22 1
  37   21   39 1
  38   21   40 1
  39   22   26 1
  40   22   23 1
  41   22   41 1
  42   23   24 1
  43   23   42 1
  44   23   43 1
  45   24   25 1
  46   24   44 1
  47   24   45 1
  48   25   26 1
  49   25   46 1
  50   25   47 1
  51   26   48 1
  52   26   49 1
  53   27   50 1
  54   28   29 3

#	End of record

