#	Name: ASD04881072
#	Creating user name:	WinNT
#	Creation time:	15. 06. 2019 20:53

#	Modifying user name:	WinNT
#	Modification time:	15. 06. 2019 20:53

#	Program:	/corina/corina34_cracker 3.40 0067  02.08.2006

@<TRIPOS>MOLECULE
ASD04881072
  83   88    0    0    0
SMALL
NO_CHARGES


@<TRIPOS>ATOM
   1 N1            -0.3287     1.5823     1.3008 N.2     
   2 C2             0.8689     1.8943     0.7353 C.2     
   3 C3             1.3710     3.2480     0.4383 C.2     
   4 O4             2.4657     3.3923    -0.0716 O.2     
   5 C5             1.5163     0.7213     0.4960 C.2     
   6 O6             0.7077    -0.2648     0.9161 O.3     
   7 C7            -0.4116     0.2896     1.4028 C.2     
   8 N8             0.6169     4.3258     0.7319 N.am    
   9 C9             1.1366     5.6145     0.5519 C.ar    
  10 C10            0.2924     6.6630     0.1748 C.ar    
  11 C11            0.8064     7.9419    -0.0037 C.ar    
  12 C12            2.1492     8.1811     0.1903 C.ar    
  13 C13            2.9986     7.1376     0.5673 C.ar    
  14 C14            2.4830     5.8513     0.7526 C.ar    
  15 C15            4.4366     7.3940     0.7745 C.2     
  16 O16            5.1750     6.4853     1.1026 O.2     
  17 N17            4.9318     8.6353     0.6002 N.am    
  18 N18           -1.0654     6.4256    -0.0228 N.3     
  19 C19           -1.2840     5.5549    -1.1863 C.3     
  20 C20           -2.7786     5.2543    -1.3216 C.3     
  21 N21           -3.5184     6.5159    -1.4652 N.3     
  22 C22           -3.2998     7.3866    -0.3017 C.3     
  23 C23           -1.8052     7.6873    -0.1665 C.3     
  24 C24           -4.8803     6.2778    -1.6634 C.ar    
  25 C25           -5.8005     6.6472    -0.6903 C.ar    
  26 C26           -7.1463     6.4107    -0.8896 C.ar    
  27 C27           -7.5784     5.8066    -2.0563 C.ar    
  28 C28           -6.6654     5.4377    -3.0268 C.ar    
  29 C29           -5.3183     5.6765    -2.8363 C.ar    
  30 C30            6.3597     8.8898     0.8060 C.3     
  31 C31            6.6571    10.3678     0.5453 C.3     
  32 N32            8.4331    12.0489     0.5105 N.am    
  33 C33            8.1484    10.6337     0.7602 C.3     
  34 C34           -1.5812    -0.4670     1.9778 C.3     
  35 C35            8.3816    13.0974     1.5361 C.3     
  36 C36            8.3159    14.4310     0.7591 C.3     
  37 C37            8.9851    14.0483    -0.5813 C.3     
  38 C38            8.7807    12.5530    -0.6862 C.2     
  39 C39            7.1330    12.9282     2.4040 C.3     
  40 C40           -2.2991    -1.4604     1.0620 C.3     
  41 C41           -1.4102    -1.9715     2.1976 C.3     
  42 O42            8.9092    11.9039    -1.7025 O.2     
  43 C43           -4.3244     5.2797    -3.8973 C.3     
  44 H44            2.4940     0.6056     0.0520 H       
  45 H45           -0.2856     4.2094     1.0678 H       
  46 H46            0.1518     8.7498    -0.2954 H       
  47 H47            2.5457     9.1759     0.0505 H       
  48 H48            3.1364     5.0437     1.0479 H       
  49 H49            4.3427     9.3601     0.3385 H       
  50 H50           -0.9310     6.0565    -2.0873 H       
  51 H51           -0.7363     4.6223    -1.0506 H       
  52 H52           -2.9463     4.6322    -2.2008 H       
  53 H53           -3.1257     4.7284    -0.4321 H       
  54 H54           -3.8475     8.3192    -0.4374 H       
  55 H55           -3.6528     6.8850     0.5993 H       
  56 H56           -1.6375     8.3093     0.7128 H       
  57 H57           -1.4581     8.2131    -1.0559 H       
  58 H58           -5.4636     7.1184     0.2213 H       
  59 H59           -7.8621     6.6976    -0.1335 H       
  60 H60           -8.6315     5.6221    -2.2094 H       
  61 H61           -7.0062     4.9661    -3.9366 H       
  62 H62            6.6290     8.6406     1.8324 H       
  63 H63            6.9411     8.2755     0.1185 H       
  64 H64            6.3878    10.6170    -0.4811 H       
  65 H65            6.0757    10.9822     1.2328 H       
  66 H66            8.4177    10.3845     1.7866 H       
  67 H67            8.7298    10.0193     0.0727 H       
  68 H68           -2.1874     0.0816     2.6987 H       
  69 H69            9.2788    13.0648     2.1542 H       
  70 H70            7.2826    14.7419     0.6045 H       
  71 H71            8.8833    15.2087     1.2704 H       
  72 H72            8.4987    14.5617    -1.4107 H       
  73 H73           10.0492    14.2832    -0.5572 H       
  74 H74            7.1588    11.9537     2.8916 H       
  75 H75            7.1073    13.7125     3.1605 H       
  76 H76            6.2433    12.9979     1.7781 H       
  77 H77           -3.3775    -1.5657     1.1807 H       
  78 H78           -1.9254    -1.5668     0.0436 H       
  79 H79           -0.4517    -2.4140     1.9263 H       
  80 H80           -1.9038    -2.4129     3.0634 H       
  81 H81           -4.0443     4.2352    -3.7605 H       
  82 H82           -4.7730     5.4096    -4.8822 H       
  83 H83           -3.4369     5.9074    -3.8167 H       
@<TRIPOS>BOND
   1    1    7 2
   2    1    2 1
   3    2    3 1
   4    2    5 2
   5    3    4 2
   6    3    8 am
   7    5    6 1
   8    5   44 1
   9    6    7 1
  10    7   34 1
  11    8    9 1
  12    8   45 1
  13    9   10 ar
  14    9   14 ar
  15   10   11 ar
  16   10   18 1
  17   11   12 ar
  18   11   46 1
  19   12   13 ar
  20   12   47 1
  21   13   14 ar
  22   13   15 1
  23   14   48 1
  24   15   16 2
  25   15   17 am
  26   17   30 1
  27   17   49 1
  28   18   19 1
  29   18   23 1
  30   19   20 1
  31   19   50 1
  32   19   51 1
  33   20   21 1
  34   20   52 1
  35   20   53 1
  36   21   22 1
  37   21   24 1
  38   22   23 1
  39   22   54 1
  40   22   55 1
  41   23   56 1
  42   23   57 1
  43   24   25 ar
  44   24   29 ar
  45   25   26 ar
  46   25   58 1
  47   26   27 ar
  48   26   59 1
  49   27   28 ar
  50   27   60 1
  51   28   29 ar
  52   28   61 1
  53   29   43 1
  54   30   31 1
  55   30   62 1
  56   30   63 1
  57   31   33 1
  58   31   64 1
  59   31   65 1
  60   32   33 1
  61   32   35 1
  62   32   38 am
  63   33   66 1
  64   33   67 1
  65   34   40 1
  66   34   41 1
  67   34   68 1
  68   35   36 1
  69   35   39 1
  70   35   69 1
  71   36   37 1
  72   36   70 1
  73   36   71 1
  74   37   38 1
  75   37   72 1
  76   37   73 1
  77   38   42 2
  78   39   74 1
  79   39   75 1
  80   39   76 1
  81   40   41 1
  82   40   77 1
  83   40   78 1
  84   41   79 1
  85   41   80 1
  86   43   81 1
  87   43   82 1
  88   43   83 1

#	End of record

