#	Name: ASD01410078
#	Creating user name:	WinNT
#	Creation time:	15. 06. 2019 19:16

#	Modifying user name:	WinNT
#	Modification time:	15. 06. 2019 19:16

#	Program:	/corina/corina34_cracker 3.40 0067  02.08.2006

@<TRIPOS>MOLECULE
ASD01410078
  62   66    0    0    0
SMALL
NO_CHARGES


@<TRIPOS>ATOM
   1 C1            -0.0169     1.3981     0.0097 C.ar    
   2 C2             0.0021    -0.0041     0.0020 C.ar    
   3 C3             1.2166    -0.6846    -0.0128 C.ar    
   4 C4             2.4069     0.0404    -0.0203 C.ar    
   5 C5             2.3733     1.4503    -0.0129 C.ar    
   6 C6             1.1460     2.1099     0.0024 C.ar    
   7 C7             3.8206    -0.3357    -0.0360 C.2     
   8 C8             4.5341     0.8169    -0.0371 C.2     
   9 N9             3.6748     1.8918    -0.0234 N.pl3   
  10 C10            6.0103     0.9057    -0.0503 C.ar    
  11 C11            6.6506     1.8036    -0.9053 C.ar    
  12 C12            8.0281     1.8815    -0.9128 C.ar    
  13 C13            8.7743     1.0720    -0.0750 C.ar    
  14 C14            8.1455     0.1794     0.7748 C.ar    
  15 C15            6.7685     0.0961     0.7964 C.ar    
  16 C16            4.3770    -1.7361    -0.0480 C.3     
  17 C17            3.9068    -2.4825     1.2022 C.3     
  18 C18            4.4717    -3.9043     1.1900 C.3     
  19 C19            3.9780    -4.6386    -0.0582 C.3     
  20 C20            4.4482    -3.8922    -1.3083 C.3     
  21 C21            3.8833    -2.4704    -1.2962 C.3     
  22 C22            4.0863     3.2978    -0.0203 C.3     
  23 C23            4.2135     3.7870    -1.4400 C.2     
  24 N24            4.5833     5.0600    -1.6835 N.am    
  25 O25            3.9832     3.0353    -2.3634 O.2     
  26 C26            4.7071     5.5356    -3.0636 C.3     
  27 C27            5.1368     7.0040    -3.0604 C.3     
  28 C28            5.4356     7.6556    -4.4121 C.3     
  29 C29            4.1625     8.0265    -3.6488 C.3     
  30 C30           -1.2656    -0.7585     0.0101 C.2     
  31 O31           -2.4412    -0.1003     0.0249 O.3     
  32 O32           -1.2496    -1.9734     0.0034 O.2     
  33 H33           -0.9626     1.9196     0.0170 H       
  34 H34            1.2361    -1.7644    -0.0181 H       
  35 H35            1.1158     3.1894     0.0078 H       
  36 H36            6.0693     2.4359    -1.5601 H       
  37 H37            8.5249     2.5757    -1.5743 H       
  38 H38            9.8523     1.1368    -0.0846 H       
  39 H39            8.7337    -0.4501     1.4261 H       
  40 H40            6.2789    -0.6008     1.4605 H       
  41 H41            5.4661    -1.6943    -0.0580 H       
  42 H42            4.2585    -1.9594     2.0914 H       
  43 H43            2.8177    -2.5243     1.2122 H       
  44 H44            5.5609    -3.8624     1.1799 H       
  45 H45            4.1368    -4.4360     2.0806 H       
  46 H46            4.3805    -5.6515    -0.0669 H       
  47 H47            2.8889    -4.6804    -0.0482 H       
  48 H48            5.5374    -3.8504    -1.3184 H       
  49 H49            4.0965    -4.4153    -2.1976 H       
  50 H50            2.7941    -2.5123    -1.2861 H       
  51 H51            4.2183    -1.9387    -2.1868 H       
  52 H52            3.3392     3.8938     0.5038 H       
  53 H53            5.0474     3.3940     0.4847 H       
  54 H54            4.7676     5.6612    -0.9449 H       
  55 H55            5.4541     4.9395    -3.5877 H       
  56 H56            3.7459     5.4394    -3.5686 H       
  57 H57            5.7395     7.3156    -2.2073 H       
  58 H58            6.2346     8.3961    -4.4482 H       
  59 H59            5.3260     7.0381    -5.3036 H       
  60 H60            3.2154     7.6531    -4.0381 H       
  61 H61            4.1240     9.0111    -3.1827 H       
  62 H62           -3.2452    -0.6377     0.0297 H       
@<TRIPOS>BOND
   1    1    2 ar
   2    1    6 ar
   3    1   33 1
   4    2    3 ar
   5    2   30 1
   6    3    4 ar
   7    3   34 1
   8    4    5 ar
   9    4    7 1
  10    5    6 ar
  11    5    9 1
  12    6   35 1
  13    7    8 2
  14    7   16 1
  15    8    9 1
  16    8   10 1
  17    9   22 1
  18   10   11 ar
  19   10   15 ar
  20   11   12 ar
  21   11   36 1
  22   12   13 ar
  23   12   37 1
  24   13   14 ar
  25   13   38 1
  26   14   15 ar
  27   14   39 1
  28   15   40 1
  29   16   17 1
  30   16   21 1
  31   16   41 1
  32   17   18 1
  33   17   42 1
  34   17   43 1
  35   18   19 1
  36   18   44 1
  37   18   45 1
  38   19   20 1
  39   19   46 1
  40   19   47 1
  41   20   21 1
  42   20   48 1
  43   20   49 1
  44   21   50 1
  45   21   51 1
  46   22   23 1
  47   22   52 1
  48   22   53 1
  49   23   24 am
  50   23   25 2
  51   24   26 1
  52   24   54 1
  53   26   27 1
  54   26   55 1
  55   26   56 1
  56   27   28 1
  57   27   29 1
  58   27   57 1
  59   28   29 1
  60   28   58 1
  61   28   59 1
  62   29   60 1
  63   29   61 1
  64   30   31 1
  65   30   32 2
  66   31   62 1

#	End of record

