#	Name: ASD01882108
#	Creating user name:	WinNT
#	Creation time:	15. 06. 2019 19:43

#	Modifying user name:	WinNT
#	Modification time:	15. 06. 2019 19:43

#	Program:	/corina/corina34_cracker 3.40 0067  02.08.2006

@<TRIPOS>MOLECULE
ASD01882108
  51   54    0    0    0
SMALL
NO_CHARGES


@<TRIPOS>ATOM
   1 C1            -0.0161     1.3337     0.0094 C.2     
   2 N2             0.0021    -0.0041     0.0020 N.am    
   3 C3             1.2613    -0.4841    -0.0126 C.2     
   4 C4             2.1640     0.7337    -0.0147 C.3     
   5 N5             1.2200     1.8645     0.0004 N.am    
   6 O6            -1.0354     1.9955     0.0180 O.2     
   7 O7             1.6013    -1.6477    -0.0215 O.2     
   8 C8            -1.1986    -0.8435     0.0097 C.3     
   9 C9             1.5609     3.2893     0.0041 C.3     
  10 C10            1.6916     3.7708     1.4261 C.ar    
  11 C11            2.8563     3.5247     2.1334 C.ar    
  12 C12            2.9808     3.9635     3.4369 C.ar    
  13 C13            1.9313     4.6556     4.0395 C.ar    
  14 C14            0.7618     4.9005     3.3218 C.ar    
  15 C15            0.6501     4.4619     2.0179 C.ar    
  16 C16            2.1374     6.5951     9.4061 C.2     
  17 N17            0.9304     7.1743     9.5245 N.am    
  18 C18            0.2046     7.0164     8.2591 C.3     
  19 C19            1.1265     6.2587     7.3362 C.ar    
  20 C20            1.0061     5.8220     6.0405 C.ar    
  21 C21            2.0586     5.1290     5.4389 C.ar    
  22 C22            3.2293     4.8820     6.1554 C.ar    
  23 C23            3.3510     5.3201     7.4563 C.ar    
  24 C24            2.2975     6.0147     8.0609 C.ar    
  25 O25            2.9794     6.5596    10.2824 O.2     
  26 C26            0.4229     7.8519    10.7202 C.3     
  27 C27            0.3867     6.8651    11.8888 C.3     
  28 C28            1.3416     9.0241    11.0707 C.3     
  29 Cl29           4.8100     5.0099     8.3445 Cl      
  30 Cl30           4.1616     2.6626     1.3808 Cl      
  31 H31            2.7924     0.7467     0.8759 H       
  32 H32            2.7753     0.7564    -0.9169 H       
  33 H33           -1.5068    -1.0461    -1.0159 H       
  34 H34           -0.9813    -1.7838     0.5163 H       
  35 H35           -2.0010    -0.3250     0.5345 H       
  36 H36            2.5060     3.4381    -0.5182 H       
  37 H37            0.7749     3.8522    -0.4994 H       
  38 H38            3.8891     3.7707     3.9884 H       
  39 H39           -0.0543     5.4359     3.7842 H       
  40 H40           -0.2543     4.6549     1.4600 H       
  41 H41           -0.7122     6.4495     8.4213 H       
  42 H42           -0.0285     7.9937     7.8364 H       
  43 H43            0.0987     6.0139     5.4873 H       
  44 H44            4.0427     4.3456     5.6895 H       
  45 H45           -0.5833     8.2239    10.5274 H       
  46 H46            1.3930     6.4930    12.0816 H       
  47 H47            0.0091     7.3692    12.7785 H       
  48 H48           -0.2678     6.0300    11.6391 H       
  49 H49            2.3479     8.6520    11.2634 H       
  50 H50            1.3674     9.7271    10.2381 H       
  51 H51            0.9640     9.5282    11.9603 H       
@<TRIPOS>BOND
   1    1    2 am
   2    1    5 am
   3    1    6 2
   4    2    3 am
   5    2    8 1
   6    3    4 1
   7    3    7 2
   8    4    5 1
   9    4   31 1
  10    4   32 1
  11    5    9 1
  12    8   33 1
  13    8   34 1
  14    8   35 1
  15    9   10 1
  16    9   36 1
  17    9   37 1
  18   10   11 ar
  19   10   15 ar
  20   11   12 ar
  21   11   30 1
  22   12   13 ar
  23   12   38 1
  24   13   14 ar
  25   13   21 1
  26   14   15 ar
  27   14   39 1
  28   15   40 1
  29   16   17 am
  30   16   24 1
  31   16   25 2
  32   17   18 1
  33   17   26 1
  34   18   19 1
  35   18   41 1
  36   18   42 1
  37   19   20 ar
  38   19   24 ar
  39   20   21 ar
  40   20   43 1
  41   21   22 ar
  42   22   23 ar
  43   22   44 1
  44   23   24 ar
  45   23   29 1
  46   26   27 1
  47   26   28 1
  48   26   45 1
  49   27   46 1
  50   27   47 1
  51   27   48 1
  52   28   49 1
  53   28   50 1
  54   28   51 1

#	End of record

