#	Name: ASD01209190
#	Creating user name:	WinNT
#	Creation time:	15. 06. 2019 19:11

#	Modifying user name:	WinNT
#	Modification time:	15. 06. 2019 19:11

#	Program:	/corina/corina34_cracker 3.40 0067  02.08.2006

@<TRIPOS>MOLECULE
ASD01209190
  65   67    0    0    0
SMALL
NO_CHARGES


@<TRIPOS>ATOM
   1 O1             0.7523     0.2431     1.1116 O.3     
   2 O2             2.8641     1.2442     2.3158 O.3     
   3 C3             7.4482     8.3384     4.1787 C.ar    
   4 C4             8.5337     9.0353     3.6687 C.ar    
   5 C5             8.8549     8.9388     2.3222 C.ar    
   6 C6             8.0927     8.1447     1.4818 C.ar    
   7 C7             6.9998     7.4418     1.9906 C.ar    
   8 C8             6.6836     7.5376     3.3461 C.ar    
   9 O9             9.9189     9.6245     1.8276 O.3     
  10 C10            6.1827     6.5937     1.0971 C.2     
  11 N11            5.1276     5.9157     1.5906 N.am    
  12 O12            6.4624     6.5079    -0.0827 O.2     
  13 C13            4.3598     5.1189     0.7510 C.2     
  14 P14            2.0427     1.1891     0.9323 P.3     
  15 O15            2.9103     0.6430    -0.1352 O.2     
  16 C16            1.5049     2.8706     0.4775 C.3     
  17 N17            3.3279     4.4276     1.1223 N.2     
  18 S18            4.6338     4.9128    -0.9240 S.3     
  19 C19            3.2503     3.8270    -1.0274 C.2     
  20 C20            2.7133     3.7239     0.1899 C.2     
  21 C21            0.8453    -1.1600     1.3660 C.3     
  22 C22           -0.5610    -1.7516     1.4816 C.3     
  23 C23            3.5082     0.1024     2.8846 C.3     
  24 C24            4.1934     0.5022     4.1928 C.3     
  25 O25            7.1378     8.4368     5.4981 O.3     
  26 C26            5.9425     7.7860     5.9337 C.3     
  27 C27            6.2435     6.3170     6.2376 C.3     
  28 C28            5.4201     8.4716     7.1978 C.3     
  29 C29           10.5874    10.5174     2.7208 C.3     
  30 C30           11.3341    11.6197     1.9352 C.3     
  31 C31           12.6661    11.8145     2.6830 C.3     
  32 N32           12.6520    10.8946     3.8411 N.3     
  33 C33           11.7322     9.7893     3.4690 C.3     
  34 H34            9.1304     9.6552     4.3214 H       
  35 H35            8.3432     8.0703     0.4339 H       
  36 H36            5.8386     6.9953     3.7440 H       
  37 H37            4.9043     5.9842     2.5320 H       
  38 H38            0.8744     2.8227    -0.4103 H       
  39 H39            0.9399     3.3066     1.3013 H       
  40 H40            2.8964     3.3339    -1.9206 H       
  41 H41            1.3766    -1.6435     0.5463 H       
  42 H42            1.3866    -1.3252     2.2976 H       
  43 H43           -1.0924    -1.2681     2.3013 H       
  44 H44           -1.1024    -1.5864     0.5501 H       
  45 H45           -0.4901    -2.8218     1.6757 H       
  46 H46            2.7666    -0.6710     3.0845 H       
  47 H47            4.2528    -0.2800     2.1865 H       
  48 H48            3.4488     0.8847     4.8909 H       
  49 H49            4.6847    -0.3687     4.6266 H       
  50 H50            4.9350     1.2757     3.9929 H       
  51 H51            5.1886     7.8476     5.1490 H       
  52 H52            6.9974     6.2553     7.0224 H       
  53 H53            5.3317     5.8205     6.5698 H       
  54 H54            6.6156     5.8285     5.3370 H       
  55 H55            5.2057     9.5182     6.9813 H       
  56 H56            4.5084     7.9751     7.5301 H       
  57 H57            6.1741     8.4100     7.9826 H       
  58 H58            9.8809    10.9569     3.4250 H       
  59 H59           11.5191    11.2952     0.9112 H       
  60 H60           10.7580    12.5450     1.9414 H       
  61 H61           13.5004    11.5706     2.0253 H       
  62 H62           12.7509    12.8449     3.0283 H       
  63 H63           13.5780    10.5443     4.0360 H       
  64 H64           11.3523     9.2886     4.3596 H       
  65 H65           12.2314     9.0786     2.8103 H       
@<TRIPOS>BOND
   1    1   21 1
   2    1   14 1
   3    2   23 1
   4    2   14 1
   5    3    4 ar
   6    3   25 1
   7    3    8 ar
   8    4    5 ar
   9    4   34 1
  10    5    6 ar
  11    5    9 1
  12    6    7 ar
  13    6   35 1
  14    7    8 ar
  15    7   10 1
  16    8   36 1
  17    9   29 1
  18   10   11 am
  19   10   12 2
  20   11   13 1
  21   11   37 1
  22   13   17 2
  23   13   18 1
  24   14   15 2
  25   14   16 1
  26   16   20 1
  27   16   38 1
  28   16   39 1
  29   17   20 1
  30   18   19 1
  31   19   20 2
  32   19   40 1
  33   21   22 1
  34   21   41 1
  35   21   42 1
  36   22   43 1
  37   22   44 1
  38   22   45 1
  39   23   24 1
  40   23   46 1
  41   23   47 1
  42   24   48 1
  43   24   49 1
  44   24   50 1
  45   25   26 1
  46   26   27 1
  47   26   28 1
  48   26   51 1
  49   27   52 1
  50   27   53 1
  51   27   54 1
  52   28   55 1
  53   28   56 1
  54   28   57 1
  55   29   30 1
  56   29   33 1
  57   29   58 1
  58   30   31 1
  59   30   59 1
  60   30   60 1
  61   31   32 1
  62   31   61 1
  63   31   62 1
  64   32   33 1
  65   32   63 1
  66   33   64 1
  67   33   65 1

#	End of record

