#	Name: ASD03092852
#	Creating user name:	WinNT
#	Creation time:	15. 06. 2019 20:33

#	Modifying user name:	WinNT
#	Modification time:	15. 06. 2019 20:33

#	Program:	/corina/corina34_cracker 3.40 0067  02.08.2006

@<TRIPOS>MOLECULE
ASD03092852
  61   65    0    0    0
SMALL
NO_CHARGES


@<TRIPOS>ATOM
   1 C1            -0.0206     1.4303     0.0194 C.3     
   2 O2             0.0043     0.0016     0.0073 O.3     
   3 C3             0.6725    -0.5776     1.1298 C.3     
   4 H4             1.4544     0.0985     1.4757 H       
   5 C5            -0.3345    -0.8121     2.2576 C.3     
   6 C6             0.3809    -1.4322     3.4594 C.3     
   7 C7             1.0059    -2.7668     3.0481 C.3     
   8 H8             0.2240    -3.4428     2.7022 H       
   9 C9             2.0129    -2.5323     1.9203 C.3     
  10 C10            1.2975    -1.9121     0.7185 C.3     
  11 N11            1.6909    -3.3605     4.1989 N.am    
  12 C12            1.8740    -4.6944     4.2595 C.2     
  13 O13            1.3895    -5.4139     3.4075 O.2     
  14 N14            2.5940    -5.2308     5.2647 N.am    
  15 C15            3.2767    -4.3689     6.2393 C.3     
  16 C16            4.7550    -4.7662     6.2985 C.3     
  17 C17            4.8652    -6.2631     6.5974 C.3     
  18 C18            4.1955    -7.0598     5.4754 C.3     
  19 C19            2.7063    -6.6885     5.4102 C.3     
  20 N20            6.2780    -6.6400     6.6875 N.pl3   
  21 N21            7.2229    -6.4966     5.6662 N.2     
  22 C22            8.3849    -6.9259     6.0681 C.2     
  23 C23            8.2368    -7.3923     7.4429 C.ar    
  24 C24            9.1131    -7.9485     8.3810 C.ar    
  25 C25            8.6496    -8.2886     9.6190 C.ar    
  26 C26            7.3169    -8.0876     9.9557 C.ar    
  27 C27            6.4420    -7.5460     9.0568 C.ar    
  28 C28            6.8871    -7.1842     7.7880 C.ar    
  29 C29            9.5925    -8.8883    10.6301 C.3     
  30 C30            9.0769    -9.0636    12.0599 C.3     
  31 C31            9.2652   -10.2860    11.1593 C.3     
  32 H32            1.0006     1.8115     0.0176 H       
  33 H33           -0.5450     1.7921    -0.8651 H       
  34 H34           -0.5363     1.7772     0.9148 H       
  35 H35           -0.7798     0.1387     2.5506 H       
  36 H36           -1.1164    -1.4881     1.9117 H       
  37 H37            1.1628    -0.7561     3.8053 H       
  38 H38           -0.3365    -1.5993     4.2628 H       
  39 H39            2.7948    -1.8562     2.2662 H       
  40 H40            2.4582    -3.4830     1.6273 H       
  41 H41            0.5156    -2.5882     0.3726 H       
  42 H42            2.0149    -1.7451    -0.0849 H       
  43 H43            2.0128    -2.7937     4.9172 H       
  44 H44            3.1903    -3.3274     5.9296 H       
  45 H45            2.8237    -4.4988     7.2222 H       
  46 H46            5.2282    -4.5507     5.3406 H       
  47 H47            5.2525    -4.2003     7.0861 H       
  48 H48            4.3702    -6.4819     7.5436 H       
  49 H49            4.6741    -6.8226     4.5252 H       
  50 H50            4.2949    -8.1263     5.6772 H       
  51 H51            2.2078    -7.0037     6.3268 H       
  52 H52            2.2434    -7.1780     4.5532 H       
  53 H53            9.2956    -6.9352     5.4875 H       
  54 H54           10.1506    -8.1082     8.1268 H       
  55 H55            6.9680    -8.3631    10.9399 H       
  56 H56            5.4084    -7.3950     9.3312 H       
  57 H57           10.6443    -8.6322    10.5019 H       
  58 H58            9.7894    -8.9227    12.8727 H       
  59 H59            8.0557    -8.7451    12.2692 H       
  60 H60            8.3678   -10.7718    10.7762 H       
  61 H61           10.1015   -10.9494    11.3796 H       
@<TRIPOS>BOND
   1    1    2 1
   2    1   32 1
   3    1   33 1
   4    1   34 1
   5    2    3 1
   6    3    4 1
   7    3   10 1
   8    3    5 1
   9    5    6 1
  10    5   35 1
  11    5   36 1
  12    6    7 1
  13    6   37 1
  14    6   38 1
  15    7    8 1
  16    7    9 1
  17    7   11 1
  18    9   10 1
  19    9   39 1
  20    9   40 1
  21   10   41 1
  22   10   42 1
  23   11   12 am
  24   11   43 1
  25   12   13 2
  26   12   14 am
  27   14   19 1
  28   14   15 1
  29   15   16 1
  30   15   44 1
  31   15   45 1
  32   16   17 1
  33   16   46 1
  34   16   47 1
  35   17   18 1
  36   17   20 1
  37   17   48 1
  38   18   19 1
  39   18   49 1
  40   18   50 1
  41   19   51 1
  42   19   52 1
  43   20   28 1
  44   20   21 1
  45   21   22 2
  46   22   23 1
  47   22   53 1
  48   23   28 ar
  49   23   24 ar
  50   24   25 ar
  51   24   54 1
  52   25   26 ar
  53   25   29 1
  54   26   27 ar
  55   26   55 1
  56   27   28 ar
  57   27   56 1
  58   29   31 1
  59   29   30 1
  60   29   57 1
  61   30   31 1
  62   30   58 1
  63   30   59 1
  64   31   60 1
  65   31   61 1

#	End of record

