#	Name: ASD03330888
#	Creating user name:	WinNT
#	Creation time:	15. 06. 2019 20:38

#	Modifying user name:	WinNT
#	Modification time:	15. 06. 2019 20:38

#	Program:	/corina/corina34_cracker 3.40 0067  02.08.2006

@<TRIPOS>MOLECULE
ASD03330888
  63   65    0    0    0
SMALL
NO_CHARGES


@<TRIPOS>ATOM
   1 N1             0.1547     0.9730    -0.0296 N.pl3   
   2 C2             0.0389    -0.3642     0.1895 C.2     
   3 C3             1.1621    -1.2908     0.5753 C.3     
   4 N4             1.9327    -0.6840     1.6719 N.3     
   5 C5             3.0076     0.1666     1.1574 C.3     
   6 C6             2.5903     0.8467    -0.1434 C.3     
   7 C7             1.3854     1.7565     0.1105 C.3     
   8 C8            -1.0779     1.4368    -0.3869 C.2     
   9 N9            -1.9237     0.4332    -0.3718 N.2     
  10 C10           -1.2661    -0.6929    -0.0170 C.2     
  11 C11           -1.8557    -2.0362     0.1208 C.2     
  12 O12           -1.1569    -2.9765     0.4473 O.2     
  13 N13           -3.1695    -2.2229    -0.1150 N.am    
  14 C14            2.4630    -1.7137     2.5755 C.3     
  15 C15           -4.9891    -3.6564    -0.8384 C.2     
  16 C16           -3.7558    -3.5585     0.0220 C.3     
  17 C17           -4.1336    -3.8020     1.4845 C.3     
  18 C18           -5.2018    -2.7928     1.9102 C.3     
  19 O19           -5.6246    -2.6579    -1.1033 O.2     
  20 N20           -5.3860    -4.8535    -1.3136 N.am    
  21 C21           -6.6424    -4.9660    -2.0586 C.3     
  22 C22           -4.6825    -5.2217     1.6398 C.3     
  23 C23           -2.8942    -3.6352     2.3660 C.3     
  24 C24           -1.4061     2.8365    -0.7328 C.ar    
  25 C25           -2.1816     3.1170    -1.8615 C.ar    
  26 C26           -2.4849     4.4269    -2.1787 C.ar    
  27 C27           -2.0218     5.4600    -1.3801 C.ar    
  28 C28           -1.2523     5.1861    -0.2604 C.ar    
  29 C29           -0.9479     3.8820     0.0694 C.ar    
  30 C30           -0.7521     6.3159     0.6025 C.3     
  31 F31           -2.3211     6.7394    -1.6944 F       
  32 F32           -2.6329     2.1096    -2.6405 F       
  33 H33            0.7506    -2.2452     0.9039 H       
  34 H34            1.8142    -1.4503    -0.2834 H       
  35 H35            3.2473     0.9286     1.8989 H       
  36 H36            3.8914    -0.4445     0.9745 H       
  37 H37            3.4204     1.4423    -0.5234 H       
  38 H38            2.3230     0.0883    -0.8793 H       
  39 H39            1.3839     2.5703    -0.6147 H       
  40 H40            1.4440     2.1659     1.1190 H       
  41 H41           -3.7269    -1.4730    -0.3755 H       
  42 H42            3.0604    -2.4249     2.0050 H       
  43 H43            3.0861    -1.2436     3.3362 H       
  44 H44            1.6359    -2.2367     3.0556 H       
  45 H45           -3.0308    -4.3079    -0.2956 H       
  46 H46           -6.0848    -2.9117     1.2822 H       
  47 H47           -5.4709    -2.9663     2.9521 H       
  48 H48           -4.8107    -1.7814     1.7995 H       
  49 H49           -4.8397    -5.6407    -1.1624 H       
  50 H50           -6.7946    -6.0023    -2.3600 H       
  51 H51           -7.4701    -4.6465    -1.4253 H       
  52 H52           -6.5974    -4.3327    -2.9446 H       
  53 H53           -3.9004    -5.9419     1.3996 H       
  54 H54           -5.0127    -5.3731     2.6675 H       
  55 H55           -5.5254    -5.3614     0.9630 H       
  56 H56           -2.5031    -2.6238     2.2553 H       
  57 H57           -3.1633    -3.8087     3.4079 H       
  58 H58           -2.1332    -4.3542     2.0627 H       
  59 H59           -3.0836     4.6460    -3.0504 H       
  60 H60           -0.3521     3.6706     0.9450 H       
  61 H61           -1.4838     6.5292     1.3818 H       
  62 H62            0.1947     6.0310     1.0612 H       
  63 H63           -0.6056     7.2046    -0.0114 H       
@<TRIPOS>BOND
   1    1    2 1
   2    1    7 1
   3    1    8 1
   4    2    3 1
   5    2   10 2
   6    3    4 1
   7    3   33 1
   8    3   34 1
   9    4    5 1
  10    4   14 1
  11    5    6 1
  12    5   35 1
  13    5   36 1
  14    6    7 1
  15    6   37 1
  16    6   38 1
  17    7   39 1
  18    7   40 1
  19    8    9 2
  20    8   24 1
  21    9   10 1
  22   10   11 1
  23   11   12 2
  24   11   13 am
  25   13   16 1
  26   13   41 1
  27   14   42 1
  28   14   43 1
  29   14   44 1
  30   15   19 2
  31   15   20 am
  32   15   16 1
  33   16   17 1
  34   16   45 1
  35   17   18 1
  36   17   22 1
  37   17   23 1
  38   18   46 1
  39   18   47 1
  40   18   48 1
  41   20   21 1
  42   20   49 1
  43   21   50 1
  44   21   51 1
  45   21   52 1
  46   22   53 1
  47   22   54 1
  48   22   55 1
  49   23   56 1
  50   23   57 1
  51   23   58 1
  52   24   25 ar
  53   24   29 ar
  54   25   26 ar
  55   25   32 1
  56   26   27 ar
  57   26   59 1
  58   27   28 ar
  59   27   31 1
  60   28   29 ar
  61   28   30 1
  62   29   60 1
  63   30   61 1
  64   30   62 1
  65   30   63 1

#	End of record

