#	Name: ASD05380153
#	Creating user name:	WinNT
#	Creation time:	15. 06. 2019 20:59

#	Modifying user name:	WinNT
#	Modification time:	15. 06. 2019 20:59

#	Program:	/corina/corina34_cracker 3.40 0067  02.08.2006

@<TRIPOS>MOLECULE
ASD05380153
  49   53    0    0    0
SMALL
NO_CHARGES


@<TRIPOS>ATOM
   1 C1             0.2227     1.3792     0.8633 C.ar    
   2 C2             0.1029     0.0365     0.5305 C.ar    
   3 C3             1.2058    -0.6992     0.1581 C.ar    
   4 C4             2.4609    -0.0896     0.1139 C.ar    
   5 C5             2.5791     1.2770     0.4532 C.ar    
   6 C6             1.4507     2.0033     0.8273 C.ar    
   7 C7             1.5721     3.4611     1.1895 C.3     
   8 N8             3.5734    -0.7769    -0.2469 N.2     
   9 C9             4.7406    -0.2097    -0.2875 C.2     
  10 N10            4.9473     1.0989     0.0222 N.am    
  11 C11            3.9145     1.8893     0.3971 C.2     
  12 C12            5.9270    -1.0434    -0.6981 C.3     
  13 C13            5.5518    -2.5257    -0.6441 C.3     
  14 C14            7.1048     1.5044     1.0320 C.ar    
  15 C15            6.2403     1.6328    -0.0470 C.ar    
  16 C16            8.3793     2.0315     0.9604 C.ar    
  17 C17            8.7947     2.6870    -0.1841 C.ar    
  18 C18            7.9363     2.8162    -1.2605 C.ar    
  19 C19            6.6605     2.2912    -1.1951 C.ar    
  20 N20            6.3235    -0.6895    -2.0633 N.pl3   
  21 C21            7.6260    -0.8980    -2.4815 C.ar    
  22 N22            8.5293    -1.4183    -1.6572 N.ar    
  23 C23            9.7763    -1.6215    -2.0485 C.ar    
  24 C24            8.0219    -0.5698    -3.7892 C.ar    
  25 O25            4.0847     3.0618     0.6767 O.2     
  26 C26            9.3572    -0.8041    -4.1575 C.ar    
  27 N27            7.3957    -0.0443    -4.8702 N.2     
  28 C28            8.2413     0.0561    -5.8540 C.2     
  29 N29            9.4658    -0.4000    -5.4640 N.pl3   
  30 N30           10.1929    -1.3235    -3.2638 N.ar    
  31 F31           10.6554    -2.1531    -1.1711 F       
  32 H32           -0.6549     1.9403     1.1485 H       
  33 H33           -0.8672    -0.4368     0.5645 H       
  34 H34            1.1004    -1.7430    -0.0982 H       
  35 H35            1.5028     4.0669     0.2860 H       
  36 H36            0.7677     3.7340     1.8725 H       
  37 H37            2.5336     3.6368     1.6719 H       
  38 H38            6.7573    -0.8537    -0.0179 H       
  39 H39            6.4353    -3.1317    -0.8452 H       
  40 H40            5.1638    -2.7665     0.3457 H       
  41 H41            4.7892    -2.7351    -1.3941 H       
  42 H42            6.7793     0.9967     1.9280 H       
  43 H43            9.0522     1.9319     1.7994 H       
  44 H44            9.7916     3.0990    -0.2374 H       
  45 H45            8.2636     3.3290    -2.1529 H       
  46 H46            5.9906     2.3924    -2.0362 H       
  47 H47            5.6730    -0.3091    -2.6741 H       
  48 H48            8.0078     0.4438    -6.8346 H       
  49 H49           10.2668    -0.4327    -6.0102 H       
@<TRIPOS>BOND
   1    1    2 ar
   2    1    6 ar
   3    1   32 1
   4    2    3 ar
   5    2   33 1
   6    3    4 ar
   7    3   34 1
   8    4    5 ar
   9    4    8 1
  10    5    6 ar
  11    5   11 1
  12    6    7 1
  13    7   35 1
  14    7   36 1
  15    7   37 1
  16    8    9 2
  17    9   10 1
  18    9   12 1
  19   10   11 am
  20   10   15 1
  21   11   25 2
  22   12   13 1
  23   12   20 1
  24   12   38 1
  25   13   39 1
  26   13   40 1
  27   13   41 1
  28   14   15 ar
  29   14   16 ar
  30   14   42 1
  31   15   19 ar
  32   16   17 ar
  33   16   43 1
  34   17   18 ar
  35   17   44 1
  36   18   19 ar
  37   18   45 1
  38   19   46 1
  39   20   21 1
  40   20   47 1
  41   21   22 ar
  42   21   24 ar
  43   22   23 ar
  44   23   31 1
  45   23   30 ar
  46   24   26 ar
  47   24   27 1
  48   26   30 ar
  49   26   29 1
  50   27   28 2
  51   28   29 1
  52   28   48 1
  53   29   49 1

#	End of record

