#	Name: ASD06340099
#	Creating user name:	WinNT
#	Creation time:	15. 06. 2019 21:06

#	Modifying user name:	WinNT
#	Modification time:	15. 06. 2019 21:06

#	Program:	/corina/corina34_cracker 3.40 0067  02.08.2006

@<TRIPOS>MOLECULE
ASD06340099
  33   33    0    0    0
SMALL
NO_CHARGES


@<TRIPOS>ATOM
   1 S1            -0.0210     1.6939     0.0114 S.3     
   2 N2             0.0021    -0.0041     0.0020 N.am    
   3 C3             1.2962    -0.3594    -0.0122 C.2     
   4 N4             2.1856     0.6226    -0.0155 N.am    
   5 C5             1.6912     1.8721    -0.0040 C.2     
   6 O6             1.6365    -1.5277    -0.0214 O.2     
   7 O7             2.3224     2.9128    -0.0052 O.2     
   8 C8             3.6269     0.3610    -0.0302 C.3     
   9 C9             4.1153     0.2773    -1.4777 C.3     
  10 C10            5.6207     0.0040    -1.4931 C.3     
  11 C11            6.1091    -0.0797    -2.9406 C.3     
  12 C12           -1.1568    -0.9002     0.0087 C.3     
  13 C13           -1.1071    -1.7890     1.2531 C.3     
  14 C14           -2.4426    -0.0711     0.0253 C.3     
  15 C15           -1.1312    -1.7765    -1.2453 C.3     
  16 H16            4.1482     1.1691     0.4830 H       
  17 H17            3.8302    -0.5822     0.4770 H       
  18 H18            3.5941    -0.5309    -1.9909 H       
  19 H19            3.9121     1.2204    -1.9848 H       
  20 H20            6.1419     0.8122    -0.9799 H       
  21 H21            5.8239    -0.9392    -0.9859 H       
  22 H22            5.5879    -0.8878    -3.4537 H       
  23 H23            5.9058     0.8635    -3.4477 H       
  24 H24            7.1815    -0.2744    -2.9515 H       
  25 H25           -1.1253    -1.1648     2.1464 H       
  26 H26           -1.9693    -2.4558     1.2580 H       
  27 H27           -0.1911    -2.3797     1.2413 H       
  28 H28           -2.4780     0.5621    -0.8612 H       
  29 H29           -3.3048    -0.7379     0.0302 H       
  30 H30           -2.4609     0.5531     0.9186 H       
  31 H31           -0.2152    -2.3672    -1.2571 H       
  32 H32           -1.9934    -2.4433    -1.2403 H       
  33 H33           -1.1666    -1.1433    -2.1318 H       
@<TRIPOS>BOND
   1    1    2 1
   2    1    5 1
   3    2    3 am
   4    2   12 1
   5    3    4 am
   6    3    6 2
   7    4    5 am
   8    4    8 1
   9    5    7 2
  10    8    9 1
  11    8   16 1
  12    8   17 1
  13    9   10 1
  14    9   18 1
  15    9   19 1
  16   10   11 1
  17   10   20 1
  18   10   21 1
  19   11   22 1
  20   11   23 1
  21   11   24 1
  22   12   13 1
  23   12   15 1
  24   12   14 1
  25   13   25 1
  26   13   26 1
  27   13   27 1
  28   14   28 1
  29   14   29 1
  30   14   30 1
  31   15   31 1
  32   15   32 1
  33   15   33 1

#	End of record

