#	Name: ASD00170017
#	Creating user name:	WinNT
#	Creation time:	15. 06. 2019 18:31

#	Modifying user name:	WinNT
#	Modification time:	15. 06. 2019 18:31

#	Program:	/corina/corina34_cracker 3.40 0067  02.08.2006

@<TRIPOS>MOLECULE
ASD00170017
  36   38    0    0    0
SMALL
NO_CHARGES


@<TRIPOS>ATOM
   1 C1            -0.0695     1.3008    -0.3505 C.2     
   2 N2            -0.0483    -0.0060    -0.3344 N.2     
   3 N3            -1.1646    -0.7656     0.0090 N.am    
   4 C4            -2.3406    -0.2156     0.3471 C.2     
   5 C5            -2.4910     1.2043     0.3671 C.2     
   6 C6            -1.3220     2.0174     0.0143 C.2     
   7 O7            -3.2835    -0.9300     0.6375 O.2     
   8 C8            -3.5883     1.9743     0.6774 C.2     
   9 S9            -3.2413     3.6342     0.5457 S.3     
  10 C10           -1.5827     3.3361     0.0673 C.2     
  11 N11           -4.8192     1.4626     1.0490 N.pl3   
  12 C12            1.1389     2.0587    -0.7212 C.2     
  13 O13            2.2719     1.4044    -1.0453 O.3     
  14 O14            1.1138     3.2737    -0.7347 O.2     
  15 C15           -1.0547    -2.1609     0.0005 C.ar    
  16 C16           -0.5037    -2.8079    -1.0985 C.ar    
  17 C17           -0.3957    -4.1841    -1.1061 C.ar    
  18 C18           -0.8372    -4.9211    -0.0165 C.ar    
  19 C19           -1.3877    -4.2757     1.0816 C.ar    
  20 C20           -1.4912    -2.8992     1.0933 C.ar    
  21 C21            3.4230     2.2153    -1.3999 C.3     
  22 C22            4.6055     1.3037    -1.7341 C.3     
  23 O23           -0.7309    -6.2763    -0.0250 O.3     
  24 H24           -0.8633     4.1100    -0.1563 H       
  25 H25           -4.9491     0.5029     1.1037 H       
  26 H26           -5.5522     2.0637     1.2548 H       
  27 H27           -0.1602    -2.2345    -1.9468 H       
  28 H28            0.0323    -4.6873    -1.9605 H       
  29 H29           -1.7315    -4.8501     1.9291 H       
  30 H30           -1.9197    -2.3969     1.9481 H       
  31 H31            3.1814     2.8297    -2.2672 H       
  32 H32            3.6864     2.8590    -0.5606 H       
  33 H33            4.8472     0.6893    -0.8668 H       
  34 H34            4.3421     0.6600    -2.5734 H       
  35 H35            5.4696     1.9125    -2.0003 H       
  36 H36            0.1016    -6.6078     0.3385 H       
@<TRIPOS>BOND
   1    1    2 2
   2    1   12 1
   3    1    6 1
   4    2    3 1
   5    3    4 am
   6    3   15 1
   7    4    5 1
   8    4    7 2
   9    5    6 1
  10    5    8 2
  11    6   10 2
  12    8    9 1
  13    8   11 1
  14    9   10 1
  15   10   24 1
  16   11   25 1
  17   11   26 1
  18   12   13 1
  19   12   14 2
  20   13   21 1
  21   15   16 ar
  22   15   20 ar
  23   16   17 ar
  24   16   27 1
  25   17   18 ar
  26   17   28 1
  27   18   19 ar
  28   18   23 1
  29   19   20 ar
  30   19   29 1
  31   20   30 1
  32   21   22 1
  33   21   31 1
  34   21   32 1
  35   22   33 1
  36   22   34 1
  37   22   35 1
  38   23   36 1

#	End of record

