#	Name: ASD01910472
#	Creating user name:	WinNT
#	Creation time:	15. 06. 2019 19:55

#	Modifying user name:	WinNT
#	Modification time:	15. 06. 2019 19:55

#	Program:	/corina/corina34_cracker 3.40 0067  02.08.2006

@<TRIPOS>MOLECULE
ASD01910472
  49   52    0    0    0
SMALL
NO_CHARGES


@<TRIPOS>ATOM
   1 C1             0.0434     1.4720     0.0554 C.ar    
   2 C2             0.0489    -0.0117     0.0355 C.2     
   3 N3            -1.0362    -0.8187     0.0403 N.2     
   4 C4            -0.5658    -2.0408     0.0168 C.2     
   5 O5             0.7676    -1.9491    -0.0015 O.3     
   6 N6             1.1040    -0.7838     0.0043 N.2     
   7 C7            -1.3758    -3.3117     0.0117 C.3     
   8 C8            -1.0608    -4.1130    -1.2535 C.3     
   9 C9            -1.9071    -5.3880    -1.2758 C.3     
  10 C10           -1.5575    -6.2494    -0.0582 C.3     
  11 N11           -1.7191    -5.4390     1.1566 N.am    
  12 C12           -1.0202    -4.1496     1.2438 C.3     
  13 C13           -2.4938    -5.8702     2.1717 C.2     
  14 C14           -3.2628    -7.1204     2.0325 C.ar    
  15 O15           -2.5585    -5.2281     3.2023 O.2     
  16 C16            1.2464     2.1754     0.0476 C.ar    
  17 C17            1.2367     3.5548     0.0657 C.ar    
  18 C18            0.0331     4.2409     0.0921 C.ar    
  19 C19           -1.1654     3.5454     0.1000 C.ar    
  20 C20           -1.1649     2.1660     0.0763 C.ar    
  21 C21           -2.6145    -8.3103     1.6931 C.ar    
  22 C22           -3.3389    -9.4753     1.5645 C.ar    
  23 C23           -4.7092    -9.4741     1.7702 C.ar    
  24 C24           -5.3644    -8.3068     2.1056 C.ar    
  25 C25           -4.6503    -7.1236     2.2459 C.ar    
  26 F26            0.0281     5.5917     0.1107 F       
  27 N27           -5.3073    -5.9476     2.5838 N.pl3   
  28 C28           -6.7686    -5.9282     2.6857 C.3     
  29 H29           -2.4376    -3.0664     0.0320 H       
  30 H30           -1.2899    -3.5097    -2.1320 H       
  31 H31           -0.0037    -4.3787    -1.2613 H       
  32 H32           -2.9640    -5.1237    -1.2430 H       
  33 H33           -1.6994    -5.9466    -2.1884 H       
  34 H34           -2.2256    -7.1096    -0.0152 H       
  35 H35           -0.5249    -6.5897    -0.1357 H       
  36 H36            0.0563    -4.3186     1.2725 H       
  37 H37           -1.3338    -3.6242     2.1459 H       
  38 H38            2.1849     1.6414     0.0277 H       
  39 H39            2.1686     4.1007     0.0596 H       
  40 H40           -2.1012     4.0840     0.1210 H       
  41 H41           -2.0994     1.6247     0.0825 H       
  42 H42           -1.5467    -8.3170     1.5313 H       
  43 H43           -2.8360   -10.3942     1.3017 H       
  44 H44           -5.2681   -10.3925     1.6670 H       
  45 H45           -6.4328    -8.3141     2.2635 H       
  46 H46           -4.7986    -5.1390     2.7523 H       
  47 H47           -7.1006    -4.9265     2.9584 H       
  48 H48           -7.2035    -6.2063     1.7257 H       
  49 H49           -7.0890    -6.6375     3.4489 H       
@<TRIPOS>BOND
   1    1    2 1
   2    1   16 ar
   3    1   20 ar
   4    2    3 1
   5    2    6 2
   6    3    4 2
   7    4    5 1
   8    4    7 1
   9    5    6 1
  10    7    8 1
  11    7   12 1
  12    7   29 1
  13    8    9 1
  14    8   30 1
  15    8   31 1
  16    9   10 1
  17    9   32 1
  18    9   33 1
  19   10   11 1
  20   10   34 1
  21   10   35 1
  22   11   12 1
  23   11   13 am
  24   12   36 1
  25   12   37 1
  26   13   14 1
  27   13   15 2
  28   14   21 ar
  29   14   25 ar
  30   16   17 ar
  31   16   38 1
  32   17   18 ar
  33   17   39 1
  34   18   19 ar
  35   18   26 1
  36   19   20 ar
  37   19   40 1
  38   20   41 1
  39   21   22 ar
  40   21   42 1
  41   22   23 ar
  42   22   43 1
  43   23   24 ar
  44   23   44 1
  45   24   25 ar
  46   24   45 1
  47   25   27 1
  48   27   28 1
  49   27   46 1
  50   28   47 1
  51   28   48 1
  52   28   49 1

#	End of record

