#	Name: ASD01812835
#	Creating user name:	WinNT
#	Creation time:	15. 06. 2019 19:29

#	Modifying user name:	WinNT
#	Modification time:	15. 06. 2019 19:29

#	Program:	/corina/corina34_cracker 3.40 0067  02.08.2006

@<TRIPOS>MOLECULE
ASD01812835
  53   57    0    0    0
SMALL
NO_CHARGES


@<TRIPOS>ATOM
   1 N1            -0.0158     1.3146     0.0093 N.ar    
   2 C2             0.0021    -0.0041     0.0020 C.ar    
   3 C3             1.1989    -0.7034    -0.0132 C.ar    
   4 C4             2.3830    -0.0017    -0.0207 C.ar    
   5 C5             2.3452     1.3975    -0.0128 C.ar    
   6 C6             1.0957     2.0332     0.0025 C.ar    
   7 C7             3.8374    -0.3895    -0.0371 C.3     
   8 N8             4.5957     0.8678    -0.0379 N.am    
   9 C9             3.7284     1.8956    -0.0238 C.2     
  10 C10            6.0561     0.9836    -0.0513 C.3     
  11 C11            6.5432     1.0307    -1.4766 C.ar    
  12 C12            6.6712     2.2478    -2.1212 C.ar    
  13 C13            7.1169     2.2966    -3.4266 C.ar    
  14 C14            7.4381     1.1171    -4.0949 C.ar    
  15 C15            7.3074    -0.1060    -3.4408 C.ar    
  16 C16            6.8661    -0.1429    -2.1335 C.ar    
  17 O17            1.0259     3.3855     0.0100 O.3     
  18 O18            4.0435     3.0700    -0.0210 O.2     
  19 C19           -0.2060     3.9611     0.0244 C.ar    
  20 C20            7.9175     1.1634    -5.4988 C.2     
  21 C21           -0.8235     4.2487     1.2317 C.ar    
  22 C22           -2.0757     4.8337     1.2452 C.ar    
  23 C23           -2.7146     5.1325     0.0541 C.ar    
  24 C24           -2.1004     4.8464    -1.1537 C.ar    
  25 C25           -0.8450     4.2668    -1.1710 C.ar    
  26 F26           -0.2428     3.9929    -2.3490 F       
  27 C27           -0.1297     3.9232     2.5293 C.3     
  28 F28           -3.9389     5.7035     0.0700 F       
  29 N29            8.0887     2.2490    -6.2232 N.2     
  30 C30            8.2753     0.0540    -6.2893 C.2     
  31 C31            8.6568     0.5144    -7.5006 C.2     
  32 N32            8.5568     1.8610    -7.4851 N.pl3   
  33 C33            8.8768     2.7597    -8.5969 C.3     
  34 H34           -0.9309    -0.5480     0.0084 H       
  35 H35            1.2022    -1.7834    -0.0186 H       
  36 H36            4.0799    -0.9729     0.8511 H       
  37 H37            4.0622    -0.9634    -0.9362 H       
  38 H38            6.3529     1.8969     0.4645 H       
  39 H39            6.4935     0.1225     0.4540 H       
  40 H40            6.4216     3.1614    -1.6023 H       
  41 H41            7.2162     3.2474    -3.9291 H       
  42 H42            7.5546    -1.0234    -3.9544 H       
  43 H43            6.7685    -1.0902    -1.6241 H       
  44 H44           -2.5563     5.0576     2.1861 H       
  45 H45           -2.6003     5.0797    -2.0822 H       
  46 H46            0.4728     4.7757     2.8430 H       
  47 H47           -0.8745     3.7035     3.2943 H       
  48 H48            0.5142     3.0550     2.3892 H       
  49 H49            8.2495    -0.9809    -5.9815 H       
  50 H50            8.9898    -0.0880    -8.3328 H       
  51 H51            9.9245     3.0543    -8.5359 H       
  52 H52            8.6981     2.2465    -9.5418 H       
  53 H53            8.2460     3.6468    -8.5402 H       
@<TRIPOS>BOND
   1    1    2 ar
   2    1    6 ar
   3    2    3 ar
   4    2   34 1
   5    3    4 ar
   6    3   35 1
   7    4    7 1
   8    4    5 ar
   9    5    6 ar
  10    5    9 1
  11    6   17 1
  12    7    8 1
  13    7   36 1
  14    7   37 1
  15    8    9 am
  16    8   10 1
  17    9   18 2
  18   10   11 1
  19   10   38 1
  20   10   39 1
  21   11   12 ar
  22   11   16 ar
  23   12   13 ar
  24   12   40 1
  25   13   14 ar
  26   13   41 1
  27   14   15 ar
  28   14   20 1
  29   15   16 ar
  30   15   42 1
  31   16   43 1
  32   17   19 1
  33   19   21 ar
  34   19   25 ar
  35   20   30 1
  36   20   29 2
  37   21   22 ar
  38   21   27 1
  39   22   23 ar
  40   22   44 1
  41   23   24 ar
  42   23   28 1
  43   24   25 ar
  44   24   45 1
  45   25   26 1
  46   27   46 1
  47   27   47 1
  48   27   48 1
  49   29   32 1
  50   30   31 2
  51   30   49 1
  52   31   32 1
  53   31   50 1
  54   32   33 1
  55   33   51 1
  56   33   52 1
  57   33   53 1

#	End of record

