#	Name: ASD01918078
#	Creating user name:	WinNT
#	Creation time:	15. 06. 2019 20:10

#	Modifying user name:	WinNT
#	Modification time:	15. 06. 2019 20:10

#	Program:	/corina/corina34_cracker 3.40 0067  02.08.2006

@<TRIPOS>MOLECULE
ASD01918078
  43   45    0    0    0
SMALL
NO_CHARGES


@<TRIPOS>ATOM
   1 C1            -0.0167     1.3794     0.0096 C.ar    
   2 C2             0.0021    -0.0041     0.0020 C.ar    
   3 C3            -1.1829    -0.7191     0.0099 C.ar    
   4 C4            -2.3920    -0.0563     0.0251 C.ar    
   5 C5            -2.4189     1.3411     0.0328 C.ar    
   6 C6            -1.2185     2.0561     0.0305 C.ar    
   7 C7            -3.6706     2.0365     0.0480 C.1     
   8 C8            -4.6968     2.6067     0.0605 C.1     
   9 C9            -5.9485     3.3021     0.0756 C.ar    
  10 C10           -5.9839     4.7039     0.0835 C.ar    
  11 N11           -7.1591     5.3085     0.0970 N.ar    
  12 C12           -8.2703     4.5824     0.1028 C.ar    
  13 N13           -8.2208     3.2564     0.0957 N.ar    
  14 N14           -7.0979     2.6268     0.0769 N.ar    
  15 N15           -9.5036     5.2202     0.1170 N.am    
  16 C16          -10.8110     4.5470     0.1248 C.3     
  17 C17           -9.6914     6.5463     0.1316 C.2     
  18 N18          -10.9798     6.9122     0.1435 N.am    
  19 C19          -11.8240     5.7081     0.1399 C.3     
  20 C20          -12.7025     5.6718    -1.1122 C.3     
  21 C21          -12.6850     5.6522     1.4035 C.3     
  22 C22          -11.4701     8.2926     0.1604 C.3     
  23 O23           -8.7753     7.3456     0.1344 O.2     
  24 C24            1.2791     2.1487     0.0014 C.3     
  25 H25            0.9461    -0.5286    -0.0105 H       
  26 H26           -1.1605    -1.7989     0.0039 H       
  27 H27           -3.3159    -0.6156     0.0305 H       
  28 H28           -1.2316     3.1360     0.0365 H       
  29 H29           -5.0692     5.2780     0.0790 H       
  30 H30          -10.9353     3.9424    -0.7735 H       
  31 H31          -10.9197     3.9327     1.0187 H       
  32 H32          -12.0704     5.6887    -2.0001 H       
  33 H33          -13.3012     4.7609    -1.1097 H       
  34 H34          -13.3617     6.5398    -1.1189 H       
  35 H35          -13.3440     6.5200     1.4328 H       
  36 H36          -13.2838     4.7414     1.3951 H       
  37 H37          -12.0407     5.6554     2.2826 H       
  38 H38          -10.6234     8.9790     0.1616 H       
  39 H39          -12.0819     8.4718    -0.7237 H       
  40 H40          -12.0700     8.4542     1.0561 H       
  41 H41            1.5817     2.3397    -1.0282 H       
  42 H42            1.1421     3.0967     0.5216 H       
  43 H43            2.0507     1.5662     0.5048 H       
@<TRIPOS>BOND
   1    1    2 ar
   2    1   24 1
   3    1    6 ar
   4    2    3 ar
   5    2   25 1
   6    3    4 ar
   7    3   26 1
   8    4    5 ar
   9    4   27 1
  10    5    6 ar
  11    5    7 1
  12    6   28 1
  13    7    8 3
  14    8    9 1
  15    9   10 ar
  16    9   14 ar
  17   10   11 ar
  18   10   29 1
  19   11   12 ar
  20   12   15 1
  21   12   13 ar
  22   13   14 ar
  23   15   16 1
  24   15   17 am
  25   16   19 1
  26   16   30 1
  27   16   31 1
  28   17   18 am
  29   17   23 2
  30   18   19 1
  31   18   22 1
  32   19   20 1
  33   19   21 1
  34   20   32 1
  35   20   33 1
  36   20   34 1
  37   21   35 1
  38   21   36 1
  39   21   37 1
  40   22   38 1
  41   22   39 1
  42   22   40 1
  43   24   41 1
  44   24   42 1
  45   24   43 1

#	End of record

