#	Name: ASD01028793
#	Creating user name:	WinNT
#	Creation time:	15. 06. 2019 18:58

#	Modifying user name:	WinNT
#	Modification time:	15. 06. 2019 18:58

#	Program:	/corina/corina34_cracker 3.40 0067  02.08.2006

@<TRIPOS>MOLECULE
ASD01028793
  31   34    0    0    0
SMALL
NO_CHARGES


@<TRIPOS>ATOM
   1 N1            -0.0157     1.3066     0.0092 N.ar    
   2 C2             0.0021    -0.0041     0.0020 C.ar    
   3 C3             1.1967    -0.7211    -0.0128 C.ar    
   4 C4             2.3902    -0.0572    -0.0206 C.ar    
   5 C5             2.3672     1.3504    -0.0132 C.ar    
   6 C6             3.5535     2.1011    -0.0200 C.ar    
   7 C7             3.4892     3.4613    -0.0122 C.ar    
   8 C8             2.2611     4.1187     0.0030 C.ar    
   9 C9             1.0917     3.4224     0.0100 C.ar    
  10 C10            1.1167     2.0170     0.0022 C.ar    
  11 C11            4.7634     4.2659    -0.0195 C.3     
  12 F12            5.7615     3.5527    -0.6920 F       
  13 F13            4.5418     5.4842    -0.6705 F       
  14 C14            6.2973     5.1992     3.1547 C.2     
  15 C15            7.3347     5.8460     3.8505 C.2     
  16 C16            8.3148     6.4724     3.1433 C.2     
  17 C17            8.2840     6.4687     1.7410 C.2     
  18 N18            7.3214     5.8685     1.0904 N.2     
  19 N19            6.2983     5.2152     1.7803 N.pl3   
  20 N20            4.5869     4.1241     2.4835 N.2     
  21 N21            5.2288     4.5145     3.5290 N.2     
  22 C22            5.2011     4.5266     1.3988 C.2     
  23 Cl23           9.5426     7.2728     0.8560 Cl      
  24 H24           -0.9341    -0.5425     0.0081 H       
  25 H25            1.1789    -1.8009    -0.0177 H       
  26 H26            3.3255    -0.5970    -0.0317 H       
  27 H27            4.5116     1.6027    -0.0311 H       
  28 H28            2.2365     5.1984     0.0097 H       
  29 H29            0.1481     3.9476     0.0221 H       
  30 H30            7.3532     5.8460     4.9303 H       
  31 H31            9.1177     6.9737     3.6632 H       
@<TRIPOS>BOND
   1    1    2 ar
   2    1   10 ar
   3    2    3 ar
   4    2   24 1
   5    3    4 ar
   6    3   25 1
   7    4    5 ar
   8    4   26 1
   9    5    6 ar
  10    5   10 ar
  11    6    7 ar
  12    6   27 1
  13    7    8 ar
  14    7   11 1
  15    8    9 ar
  16    8   28 1
  17    9   10 ar
  18    9   29 1
  19   11   12 1
  20   11   13 1
  21   11   22 1
  22   14   15 1
  23   14   19 1
  24   14   21 2
  25   15   16 2
  26   15   30 1
  27   16   17 1
  28   16   31 1
  29   17   18 2
  30   17   23 1
  31   18   19 1
  32   19   22 1
  33   20   21 1
  34   20   22 2

#	End of record

