#	Name: ASD01812990
#	Creating user name:	WinNT
#	Creation time:	15. 06. 2019 19:29

#	Modifying user name:	WinNT
#	Modification time:	15. 06. 2019 19:29

#	Program:	/corina/corina34_cracker 3.40 0067  02.08.2006

@<TRIPOS>MOLECULE
ASD01812990
  49   52    0    0    0
SMALL
NO_CHARGES


@<TRIPOS>ATOM
   1 C1            -0.0167     1.3764     0.0227 C.ar    
   2 C2             0.0019    -0.0040     0.0170 C.ar    
   3 C3             1.2084    -0.6873    -0.0072 C.ar    
   4 C4             2.3936     0.0073    -0.0260 C.ar    
   5 C5             2.3937     1.4056    -0.0210 C.ar    
   6 C6             1.1718     2.0915     0.0039 C.ar    
   7 C7             3.8406    -0.4179    -0.0540 C.3     
   8 N8             4.6307     0.8186    -0.0641 N.am    
   9 C9             3.7911     1.8681    -0.0449 C.2     
  10 C10            6.0934     0.8964    -0.0901 C.3     
  11 C11            6.5693     0.9279    -1.5196 C.ar    
  12 O12            1.1515     3.4479     0.0091 O.3     
  13 O13            4.1366     3.0339    -0.0467 O.2     
  14 C14            6.7241     2.1378    -2.1701 C.ar    
  15 C15            7.1607     2.1667    -3.4814 C.ar    
  16 C16            7.4429     0.9857    -4.1421 C.ar    
  17 C17            7.2889    -0.2241    -3.4913 C.ar    
  18 C18            6.8565    -0.2528    -2.1787 C.ar    
  19 C19            7.9178     1.0172    -5.5719 C.3     
  20 C20           -0.1276     4.0779    -0.0868 C.3     
  21 C21            0.0363     5.4818    -0.6771 C.3     
  22 C22           -1.3291     6.1756    -0.7025 C.3     
  23 C23           -1.9043     6.2052     0.7159 C.3     
  24 O24           -2.0017     4.8705     1.2170 O.3     
  25 C25           -0.7492     4.1885     1.3079 C.3     
  26 O26            0.5478     5.3841    -2.0078 O.3     
  27 H27           -0.9603     1.9016     0.0374 H       
  28 H28           -0.9274    -0.5542     0.0317 H       
  29 H29            1.2164    -1.7672    -0.0109 H       
  30 H30            4.0757    -1.0056     0.8333 H       
  31 H31            4.0430    -0.9992    -0.9536 H       
  32 H32            6.4182     1.8027     0.4210 H       
  33 H33            6.5126     0.0252     0.4133 H       
  34 H34            6.5037     3.0605    -1.6539 H       
  35 H35            7.2810     3.1119    -3.9897 H       
  36 H36            7.5091    -1.1468    -4.0076 H       
  37 H37            6.7398    -1.1978    -1.6691 H       
  38 H38            9.0061     1.0758    -5.5921 H       
  39 H39            7.5933     0.1105    -6.0826 H       
  40 H40            7.4977     1.8879    -6.0753 H       
  41 H41           -0.7780     3.4857    -0.7305 H       
  42 H42            0.7266     6.0581    -0.0611 H       
  43 H43           -1.2128     7.1952    -1.0698 H       
  44 H44           -2.0047     5.6261    -1.3582 H       
  45 H45           -1.2486     6.7891     1.3619 H       
  46 H46           -2.8949     6.6596     0.6970 H       
  47 H47           -0.9076     3.1901     1.7155 H       
  48 H48           -0.0784     4.7460     1.9617 H       
  49 H49            0.6766     6.2379    -2.4433 H       
@<TRIPOS>BOND
   1    1    2 ar
   2    1    6 ar
   3    1   27 1
   4    2    3 ar
   5    2   28 1
   6    3    4 ar
   7    3   29 1
   8    4    7 1
   9    4    5 ar
  10    5    6 ar
  11    5    9 1
  12    6   12 1
  13    7    8 1
  14    7   30 1
  15    7   31 1
  16    8    9 am
  17    8   10 1
  18    9   13 2
  19   10   11 1
  20   10   32 1
  21   10   33 1
  22   11   14 ar
  23   11   18 ar
  24   12   20 1
  25   14   15 ar
  26   14   34 1
  27   15   16 ar
  28   15   35 1
  29   16   17 ar
  30   16   19 1
  31   17   18 ar
  32   17   36 1
  33   18   37 1
  34   19   38 1
  35   19   39 1
  36   19   40 1
  37   20   21 1
  38   20   25 1
  39   20   41 1
  40   21   22 1
  41   21   26 1
  42   21   42 1
  43   22   23 1
  44   22   43 1
  45   22   44 1
  46   23   24 1
  47   23   45 1
  48   23   46 1
  49   24   25 1
  50   25   47 1
  51   25   48 1
  52   26   49 1

#	End of record

