#	Name: ASD02470005
#	Creating user name:	WinNT
#	Creation time:	15. 06. 2019 20:22

#	Modifying user name:	WinNT
#	Modification time:	15. 06. 2019 20:22

#	Program:	/corina/corina34_cracker 3.40 0067  02.08.2006

@<TRIPOS>MOLECULE
ASD02470005
  19   18    0    0    0
SMALL
NO_CHARGES


@<TRIPOS>ATOM
   1 C1            -0.0184     1.5028     0.0103 C.2     
   2 C2             0.0021    -0.0041     0.0020 C.3     
   3 C3            -0.6130    -0.5153    -1.3023 C.3     
   4 C4             0.1960     0.0123    -2.4889 C.3     
   5 C5            -0.5923    -2.0451    -1.3107 C.3     
   6 O6             1.0197     2.1211     0.0037 O.2     
   7 O7            -1.1898     2.1580     0.0194 O.3     
   8 O8            -1.9626    -0.0566    -1.4044 O.3     
   9 O9             1.3516    -0.4627     0.1041 O.3     
  10 H10           -0.5743    -0.3799     0.8474 H       
  11 H11            1.2254    -0.3376    -2.4110 H       
  12 H12           -0.2422    -0.3519    -3.4181 H       
  13 H13            0.1813     1.1021    -2.4829 H       
  14 H14           -1.1687    -2.4210    -0.4653 H       
  15 H15           -1.0305    -2.4093    -2.2399 H       
  16 H16            0.4371    -2.3950    -1.2328 H       
  17 H17           -1.1523     3.1243     0.0245 H       
  18 H18           -2.4158    -0.3437    -2.2089 H       
  19 H19            1.9236    -0.1656    -0.6168 H       
@<TRIPOS>BOND
   1    1    2 1
   2    1    6 2
   3    1    7 1
   4    2    3 1
   5    2    9 1
   6    2   10 1
   7    3    4 1
   8    3    5 1
   9    3    8 1
  10    4   11 1
  11    4   12 1
  12    4   13 1
  13    5   14 1
  14    5   15 1
  15    5   16 1
  16    7   17 1
  17    8   18 1
  18    9   19 1

#	End of record

