#	Name: ASD01915398
#	Creating user name:	WinNT
#	Creation time:	15. 06. 2019 20:05

#	Modifying user name:	WinNT
#	Modification time:	15. 06. 2019 20:05

#	Program:	/corina/corina34_cracker 3.40 0067  02.08.2006

@<TRIPOS>MOLECULE
ASD01915398
  48   51    0    0    0
SMALL
NO_CHARGES


@<TRIPOS>ATOM
   1 C1            -0.0168     1.3887     0.0097 C.ar    
   2 C2             0.0021    -0.0041     0.0020 C.ar    
   3 N3             1.1537    -0.6628    -0.0125 N.ar    
   4 C4             2.3101    -0.0318    -0.0202 C.ar    
   5 C5             2.3650     1.3500    -0.0128 C.ar    
   6 C6             1.1839     2.0778     0.0019 C.ar    
   7 C7             3.6951     2.0585    -0.0207 C.3     
   8 N8             4.7513     1.1442     0.4375 N.am    
   9 C9             5.7284     0.9666    -0.6521 C.3     
  10 C10            5.5825     2.2370    -1.5265 C.3     
  11 C11            4.0527     2.4874    -1.4594 C.3     
  12 C12            4.8161     0.5650     1.6528 C.2     
  13 O13            3.9529     0.7845     2.4759 O.2     
  14 C14            5.9612    -0.3552     1.9887 C.3     
  15 C15           -1.2760    -0.7571     0.0107 C.ar    
  16 C16           -1.2666    -2.1503     0.0031 C.ar    
  17 C17           -2.4600    -2.8463     0.0117 C.ar    
  18 C18           -3.6628    -2.1616     0.0278 C.ar    
  19 C19           -3.6768    -0.7784     0.0349 C.ar    
  20 C20           -2.4904    -0.0735     0.0322 C.ar    
  21 Cl21          -2.4509    -4.5823     0.0017 Cl      
  22 C22            1.2075     3.5846     0.0103 C.3     
  23 F23            6.2909     3.3097    -0.9745 F       
  24 C24            5.8894    -0.9338     3.4117 C.3     
  25 C25            6.3738    -2.2639     2.8108 C.3     
  26 C26            5.7661    -1.7929     1.4789 C.3     
  27 H27           -0.9550     1.9236     0.0170 H       
  28 H28            3.2276    -0.6014    -0.0320 H       
  29 H29            3.6533     2.9323     0.6295 H       
  30 H30            6.7385     0.8979    -0.2484 H       
  31 H31            5.4900     0.0763    -1.2339 H       
  32 H32            5.9024     2.0453    -2.5507 H       
  33 H33            3.5284     1.8689    -2.1878 H       
  34 H34            3.8275     3.5426    -1.6145 H       
  35 H35            6.9333     0.0699     1.7388 H       
  36 H36           -0.3283    -2.6850    -0.0098 H       
  37 H37           -4.5936    -2.7091     0.0345 H       
  38 H38           -4.6181    -0.2491     0.0468 H       
  39 H39           -2.5031     1.0065     0.0378 H       
  40 H40            1.2040     3.9537    -1.0153 H       
  41 H41            0.3280     3.9588     0.5341 H       
  42 H42            2.1077     3.9311     0.5180 H       
  43 H43            6.6008    -0.4823     4.1031 H       
  44 H44            4.8773    -0.9794     3.8140 H       
  45 H45            7.4591    -2.3619     2.7851 H       
  46 H46            5.8786    -3.1391     3.2314 H       
  47 H47            4.7203    -2.0733     1.3528 H       
  48 H48            6.3780    -2.0349     0.6100 H       
@<TRIPOS>BOND
   1    1    2 ar
   2    1    6 ar
   3    1   27 1
   4    2    3 ar
   5    2   15 1
   6    3    4 ar
   7    4    5 ar
   8    4   28 1
   9    5    6 ar
  10    5    7 1
  11    6   22 1
  12    7    8 1
  13    7   11 1
  14    7   29 1
  15    8    9 1
  16    8   12 am
  17    9   10 1
  18    9   30 1
  19    9   31 1
  20   10   11 1
  21   10   23 1
  22   10   32 1
  23   11   33 1
  24   11   34 1
  25   12   13 2
  26   12   14 1
  27   14   24 1
  28   14   26 1
  29   14   35 1
  30   15   16 ar
  31   15   20 ar
  32   16   17 ar
  33   16   36 1
  34   17   18 ar
  35   17   21 1
  36   18   19 ar
  37   18   37 1
  38   19   20 ar
  39   19   38 1
  40   20   39 1
  41   22   40 1
  42   22   41 1
  43   22   42 1
  44   24   25 1
  45   24   43 1
  46   24   44 1
  47   25   26 1
  48   25   45 1
  49   25   46 1
  50   26   47 1
  51   26   48 1

#	End of record

