#	Name: ASD02198090
#	Creating user name:	WinNT
#	Creation time:	15. 06. 2019 20:18

#	Modifying user name:	WinNT
#	Modification time:	15. 06. 2019 20:18

#	Program:	/corina/corina34_cracker 3.40 0067  02.08.2006

@<TRIPOS>MOLECULE
ASD02198090
  53   55    0    0    0
SMALL
NO_CHARGES


@<TRIPOS>ATOM
   1 C1            -0.0166     1.3753     0.0096 C.2     
   2 C2             0.0021    -0.0041     0.0020 C.2     
   3 C3            -1.1878    -0.8008     0.0083 C.1     
   4 S4             1.5675     2.0054    -0.0021 S.3     
   5 C5             2.2772     0.3990    -0.0175 C.2     
   6 C6             1.2824    -0.5520    -0.0132 C.2     
   7 C7             3.6579     0.1249    -0.0322 C.2     
   8 C8             4.6308     1.2351    -0.0350 C.2     
   9 O9             4.0505    -1.0301    -0.0426 O.2     
  10 N10            1.5294    -1.9154    -0.0224 N.pl3   
  11 N11           -1.1593     2.1393     0.0193 N.pl3   
  12 N12           -2.1317    -1.4328     0.0134 N.1     
  13 O13            4.3523     2.5520    -0.0242 O.3     
  14 N14            5.3580     3.2224    -0.0296 N.2     
  15 C15            6.4373     2.4802    -0.0443 C.2     
  16 C16            5.9935     1.1303    -0.0429 C.2     
  17 C17            7.8437     2.9548    -0.0546 C.ar    
  18 C18            8.1204     4.3201    -0.0483 C.ar    
  19 C19            9.4296     4.7572    -0.0575 C.ar    
  20 C20           10.4674     3.8417    -0.0734 C.ar    
  21 C21           10.1977     2.4824    -0.0797 C.ar    
  22 C22            8.8912     2.0360    -0.0649 C.ar    
  23 C23           -3.7450     4.2705     2.7042 C.3     
  24 Cl24          12.1118     4.3979    -0.0860 Cl      
  25 Cl25          11.5043     1.3395    -0.1003 Cl      
  26 C26           -1.0630     3.6011     0.0268 C.3     
  27 C27           -0.9133     4.1019    -1.3867 C.2     
  28 C28           -2.3310     4.1925     0.6458 C.3     
  29 O29           -0.8065     5.4186    -1.6244 O.3     
  30 O30           -0.8895     3.3181    -2.3059 O.2     
  31 C31           -2.4177     3.7851     2.1180 C.3     
  32 C32           -1.2578     4.4159     2.8910 C.3     
  33 C33           -0.6651     5.8290    -3.0100 C.3     
  34 H34            2.4424    -2.2428    -0.0326 H       
  35 H35            0.7893    -2.5424    -0.0187 H       
  36 H36           -2.0294     1.7105     0.0212 H       
  37 H37            6.5928     0.2318    -0.0525 H       
  38 H38            7.3116     5.0357    -0.0367 H       
  39 H39            9.6445     5.8156    -0.0526 H       
  40 H40            8.6814     0.9765    -0.0698 H       
  41 H41           -4.5714     3.8211     2.1536 H       
  42 H42           -3.8068     3.9802     3.7531 H       
  43 H43           -3.8024     5.3560     2.6237 H       
  44 H44           -0.1963     3.9051     0.6137 H       
  45 H45           -2.2990     5.2795     0.5710 H       
  46 H46           -3.2047     3.8172     0.1129 H       
  47 H47           -2.3603     2.6996     2.1986 H       
  48 H48           -0.3122     4.0701     2.4734 H       
  49 H49           -1.3152     5.5014     2.8104 H       
  50 H50           -1.3196     4.1256     3.9398 H       
  51 H51           -1.5352     5.4986    -3.5773 H       
  52 H52           -0.5889     6.9151    -3.0613 H       
  53 H53            0.2349     5.3813    -3.4315 H       
@<TRIPOS>BOND
   1    1    2 2
   2    1    4 1
   3    1   11 1
   4    2    3 1
   5    2    6 1
   6    3   12 3
   7    4    5 1
   8    5    6 2
   9    5    7 1
  10    6   10 1
  11    7    8 1
  12    7    9 2
  13    8   13 1
  14    8   16 2
  15   10   34 1
  16   10   35 1
  17   11   26 1
  18   11   36 1
  19   13   14 1
  20   14   15 2
  21   15   16 1
  22   15   17 1
  23   16   37 1
  24   17   18 ar
  25   17   22 ar
  26   18   19 ar
  27   18   38 1
  28   19   20 ar
  29   19   39 1
  30   20   21 ar
  31   20   24 1
  32   21   22 ar
  33   21   25 1
  34   22   40 1
  35   23   31 1
  36   23   41 1
  37   23   42 1
  38   23   43 1
  39   26   27 1
  40   26   28 1
  41   26   44 1
  42   27   29 1
  43   27   30 2
  44   28   31 1
  45   28   45 1
  46   28   46 1
  47   29   33 1
  48   31   32 1
  49   31   47 1
  50   32   48 1
  51   32   49 1
  52   32   50 1
  53   33   51 1
  54   33   52 1
  55   33   53 1

#	End of record

