#	Name: ASD00071078
#	Creating user name:	WinNT
#	Creation time:	15. 06. 2019 18:30

#	Modifying user name:	WinNT
#	Modification time:	15. 06. 2019 18:30

#	Program:	/corina/corina34_cracker 3.40 0067  02.08.2006

@<TRIPOS>MOLECULE
ASD00071078
  38   41    0    0    0
SMALL
NO_CHARGES


@<TRIPOS>ATOM
   1 N1            -0.0157     1.3065     0.0092 N.2     
   2 C2             0.0021    -0.0041     0.0020 C.2     
   3 N3             1.1984    -0.6822     0.0317 N.pl3   
   4 C4             2.3732    -0.0684    -0.6058 C.3     
   5 C5             2.3601     1.4066    -0.2838 C.ar    
   6 C6             3.5306     2.1320    -0.2741 C.ar    
   7 C7             3.5023     3.4864     0.0113 C.ar    
   8 C8             2.3010     4.1157     0.2867 C.ar    
   9 C9             1.1230     3.3980     0.2846 C.ar    
  10 C10            1.1441     2.0306     0.0020 C.ar    
  11 N11           -1.1783    -0.7029    -0.0348 N.pl3   
  12 C12            1.3004    -1.9893     0.6854 C.3     
  13 O13            3.2744    -3.0537    -1.3483 O.3     
  14 C14            3.7655    -3.4366    -2.6441 C.3     
  15 C15            2.9380    -4.7043    -2.9633 C.3     
  16 C16            1.6924    -4.4837    -2.1270 C.ar    
  17 C17            1.9908    -3.4852    -1.2084 C.ar    
  18 C18            0.4469    -5.0704    -2.1505 C.ar    
  19 C19           -0.5271    -4.6615    -1.2565 C.ar    
  20 C20           -0.2445    -3.6635    -0.3427 C.ar    
  21 C21            1.0037    -3.0761    -0.3155 C.ar    
  22 H22            3.2838    -0.5228    -0.2154 H       
  23 H23            2.3231    -0.2105    -1.6853 H       
  24 H24            4.4702     1.6446    -0.4885 H       
  25 H25            4.4211     4.0539     0.0193 H       
  26 H26            2.2857     5.1734     0.5045 H       
  27 H27            0.1873     3.8920     0.5009 H       
  28 H28           -2.0233    -0.2269    -0.0555 H       
  29 H29           -1.1678    -1.6728    -0.0402 H       
  30 H30            2.3088    -2.1217     1.0774 H       
  31 H31            0.5825    -2.0432     1.5038 H       
  32 H32            3.5713    -2.6539    -3.3774 H       
  33 H33            4.8291    -3.6707    -2.6001 H       
  34 H34            2.6917    -4.7518    -4.0241 H       
  35 H35            3.4656    -5.6039    -2.6467 H       
  36 H36            0.2303    -5.8496    -2.8664 H       
  37 H37           -1.5048    -5.1200    -1.2732 H       
  38 H38           -1.0048    -3.3415     0.3535 H       
@<TRIPOS>BOND
   1    1    2 2
   2    1   10 1
   3    2    3 1
   4    2   11 1
   5    3    4 1
   6    3   12 1
   7    4    5 1
   8    4   22 1
   9    4   23 1
  10    5    6 ar
  11    5   10 ar
  12    6    7 ar
  13    6   24 1
  14    7    8 ar
  15    7   25 1
  16    8    9 ar
  17    8   26 1
  18    9   10 ar
  19    9   27 1
  20   11   28 1
  21   11   29 1
  22   12   21 1
  23   12   30 1
  24   12   31 1
  25   13   14 1
  26   13   17 1
  27   14   15 1
  28   14   32 1
  29   14   33 1
  30   15   16 1
  31   15   34 1
  32   15   35 1
  33   16   17 ar
  34   16   18 ar
  35   17   21 ar
  36   18   19 ar
  37   18   36 1
  38   19   20 ar
  39   19   37 1
  40   20   21 ar
  41   20   38 1

#	End of record

