#	Name: ASD02030361
#	Creating user name:	WinNT
#	Creation time:	15. 06. 2019 20:15

#	Modifying user name:	WinNT
#	Modification time:	15. 06. 2019 20:15

#	Program:	/corina/corina34_cracker 3.40 0067  02.08.2006

@<TRIPOS>MOLECULE
ASD02030361
  34   35    0    0    0
SMALL
NO_CHARGES


@<TRIPOS>ATOM
   1 N1             0.0896     1.4627    -0.1863 N.3     
   2 C2             0.1376    -0.0047    -0.2359 C.3     
   3 C3             0.7102    -0.5386     1.0814 C.3     
   4 N4             2.0028     0.1179     1.3291 N.am    
   5 C5             2.0625     1.5859     1.2594 C.3     
   6 C6             1.4366     2.0361    -0.0650 C.3     
   7 C7             3.1034    -0.6064     1.6129 C.2     
   8 O8             4.1879    -0.0624     1.6813 O.2     
   9 C9             2.9911    -2.0659     1.8414 C.ar    
  10 N10            1.7907    -2.6267     1.9349 N.ar    
  11 C11            1.6478    -3.9224     2.1380 C.ar    
  12 C12            2.7600    -4.7509     2.2620 C.ar    
  13 C13            4.0270    -4.2021     2.1702 C.ar    
  14 C14            4.1443    -2.8373     1.9506 C.ar    
  15 O15            0.4027    -4.4537     2.2275 O.3     
  16 C16           -0.6983    -3.5528     2.0925 C.3     
  17 C17            1.3460     3.5631    -0.0937 C.3     
  18 H18           -0.3912     1.8362    -0.9909 H       
  19 H19           -0.8690    -0.3969    -0.3804 H       
  20 H20            0.7735    -0.3200    -1.0632 H       
  21 H21            0.0231    -0.3137     1.8971 H       
  22 H22            0.8551    -1.6164     1.0075 H       
  23 H23            1.5053     2.0149     2.0922 H       
  24 H24            3.1014     1.9126     1.3032 H       
  25 H25            2.0544     1.6923    -0.8946 H       
  26 H26            2.6352    -5.8106     2.4286 H       
  27 H27            4.9054    -4.8235     2.2630 H       
  28 H28            5.1186    -2.3777     1.8736 H       
  29 H29           -0.6461    -2.7955     2.8747 H       
  30 H30           -0.6553    -3.0702     1.1161 H       
  31 H31           -1.6333    -4.1055     2.1837 H       
  32 H32            2.3454     3.9883    -0.0013 H       
  33 H33            0.9008     3.8830    -1.0358 H       
  34 H34            0.7271     3.9060     0.7355 H       
@<TRIPOS>BOND
   1    1    2 1
   2    1    6 1
   3    1   18 1
   4    2    3 1
   5    2   19 1
   6    2   20 1
   7    3    4 1
   8    3   21 1
   9    3   22 1
  10    4    5 1
  11    4    7 am
  12    5    6 1
  13    5   23 1
  14    5   24 1
  15    6   17 1
  16    6   25 1
  17    7    8 2
  18    7    9 1
  19    9   10 ar
  20    9   14 ar
  21   10   11 ar
  22   11   12 ar
  23   11   15 1
  24   12   13 ar
  25   12   26 1
  26   13   14 ar
  27   13   27 1
  28   14   28 1
  29   15   16 1
  30   16   29 1
  31   16   30 1
  32   16   31 1
  33   17   32 1
  34   17   33 1
  35   17   34 1

#	End of record

