#	Name: ASD01148776
#	Creating user name:	WinNT
#	Creation time:	15. 06. 2019 19:03

#	Modifying user name:	WinNT
#	Modification time:	15. 06. 2019 19:03

#	Program:	/corina/corina34_cracker 3.40 0067  02.08.2006

@<TRIPOS>MOLECULE
ASD01148776
  55   58    0    0    0
SMALL
NO_CHARGES


@<TRIPOS>ATOM
   1 N1            -0.0155     1.3412     0.0827 N.pl3   
   2 C2             0.0021     0.0054    -0.1104 C.2     
   3 C3             1.3176    -0.4067    -0.1563 C.2     
   4 C4             2.1209     0.7507     0.0195 C.2     
   5 C5             1.2771     1.8041     0.1631 C.2     
   6 C6             1.7972    -1.7843    -0.3498 C.2     
   7 O7             1.0002    -2.6914    -0.4887 O.2     
   8 O8             3.1203    -2.0402    -0.3731 O.3     
   9 C9            -1.2073    -0.8828    -0.2508 C.3     
  10 C10           -1.1681     2.1319     0.1797 C.ar    
  11 C11           -2.0096     2.0035     1.2769 C.ar    
  12 C12           -3.1447     2.7845     1.3700 C.ar    
  13 C13           -3.4437     3.6940     0.3718 C.ar    
  14 C14           -2.6081     3.8238    -0.7220 C.ar    
  15 C15           -1.4682     3.0494    -0.8180 C.ar    
  16 S16           -4.2133     2.6219     2.7614 S.o2    
  17 O17           -5.4833     3.0381     2.2785 O.2     
  18 O18           -4.0012     1.2912     3.2126 O.2     
  19 C19           -3.5695     3.8134     3.9683 C.3     
  20 C20            1.6796     3.2120     0.3703 C.ar    
  21 C21            0.7823     4.1219     0.9310 C.ar    
  22 C22            1.1634     5.4339     1.1218 C.ar    
  23 C23            2.4334     5.8486     0.7581 C.ar    
  24 C24            3.3279     4.9505     0.2008 C.ar    
  25 C25            2.9602     3.6346     0.0110 C.ar    
  26 Cl26           2.9059     7.5013     1.0012 Cl      
  27 C27            3.5212    -3.4221    -0.5681 C.3     
  28 C28            5.0253    -3.5139    -0.5659 C.ar    
  29 C29            5.7031    -3.7267     0.6199 C.ar    
  30 C30            7.0829    -3.8109     0.6220 C.ar    
  31 C31            7.7849    -3.6827    -0.5619 C.ar    
  32 C32            7.1071    -3.4708    -1.7479 C.ar    
  33 C33            5.7270    -3.3910    -1.7506 C.ar    
  34 H34            3.2002     0.7862     0.0360 H       
  35 H35           -1.4888    -0.9498    -1.3016 H       
  36 H36           -0.9728    -1.8781     0.1268 H       
  37 H37           -2.0348    -0.4629     0.3211 H       
  38 H38           -1.7768     1.2932     2.0565 H       
  39 H39           -4.3319     4.3037     0.4468 H       
  40 H40           -2.8445     4.5346    -1.5000 H       
  41 H41           -0.8136     3.1544    -1.6705 H       
  42 H42           -3.6049     4.8164     3.5430 H       
  43 H43           -4.1782     3.7802     4.8719 H       
  44 H44           -2.5386     3.5596     4.2150 H       
  45 H45           -0.2087     3.7996     1.2148 H       
  46 H46            0.4697     6.1390     1.5554 H       
  47 H47            4.3170     5.2798    -0.0813 H       
  48 H48            3.6603     2.9338    -0.4193 H       
  49 H49            3.1186    -4.0344     0.2388 H       
  50 H50            3.1366    -3.7806    -1.5229 H       
  51 H51            5.1546    -3.8269     1.5449 H       
  52 H52            7.6124    -3.9765     1.5486 H       
  53 H53            8.8629    -3.7478    -0.5603 H       
  54 H54            7.6556    -3.3703    -2.6729 H       
  55 H55            5.1973    -3.2291    -2.6777 H       
@<TRIPOS>BOND
   1    1    2 1
   2    1    5 1
   3    1   10 1
   4    2    3 2
   5    2    9 1
   6    3    4 1
   7    3    6 1
   8    4    5 2
   9    4   34 1
  10    5   20 1
  11    6    7 2
  12    6    8 1
  13    8   27 1
  14    9   35 1
  15    9   36 1
  16    9   37 1
  17   10   11 ar
  18   10   15 ar
  19   11   12 ar
  20   11   38 1
  21   12   13 ar
  22   12   16 1
  23   13   14 ar
  24   13   39 1
  25   14   15 ar
  26   14   40 1
  27   15   41 1
  28   16   17 2
  29   16   18 2
  30   16   19 1
  31   19   42 1
  32   19   43 1
  33   19   44 1
  34   20   21 ar
  35   20   25 ar
  36   21   22 ar
  37   21   45 1
  38   22   23 ar
  39   22   46 1
  40   23   24 ar
  41   23   26 1
  42   24   25 ar
  43   24   47 1
  44   25   48 1
  45   27   28 1
  46   27   49 1
  47   27   50 1
  48   28   29 ar
  49   28   33 ar
  50   29   30 ar
  51   29   51 1
  52   30   31 ar
  53   30   52 1
  54   31   32 ar
  55   31   53 1
  56   32   33 ar
  57   32   54 1
  58   33   55 1

#	End of record

