#	Name: ASD01948035
#	Creating user name:	WinNT
#	Creation time:	15. 06. 2019 20:13

#	Modifying user name:	WinNT
#	Modification time:	15. 06. 2019 20:13

#	Program:	/corina/corina34_cracker 3.40 0067  02.08.2006

@<TRIPOS>MOLECULE
ASD01948035
  56   59    0    0    0
SMALL
NO_CHARGES


@<TRIPOS>ATOM
   1 C1             0.0803    -0.1242     2.0607 C.3     
   2 C2             0.0759    -1.6238     2.3644 C.3     
   3 C3             1.2748    -0.9903     1.6557 C.3     
   4 S4            -1.0129     0.4658     0.7388 S.o2    
   5 O5            -0.3254     0.4868    -0.5046 O.2     
   6 O6            -2.2997    -0.1258     0.8546 O.2     
   7 N7            -1.2647     2.0637     1.0933 N.am    
   8 C8             0.8845     2.6913     0.1704 C.2     
   9 C9            -0.3902     3.0457     0.5828 C.2     
  10 C10           -0.8110     4.3805     0.4921 C.2     
  11 C11            0.0677     5.3318    -0.0143 C.2     
  12 C12            1.3381     4.9355    -0.4168 C.2     
  13 N13            1.7244     3.6458    -0.3216 N.am    
  14 N14            1.4720     1.4393     0.1887 N.pl3   
  15 C15            2.8350     1.5364    -0.3437 C.3     
  16 C16            3.0082     3.0243    -0.6879 C.3     
  17 O17            2.1159     5.7665    -0.8629 O.2     
  18 C18           -0.3522     6.7748    -0.1259 C.3     
  19 N19           -2.0851     4.7462     0.9012 N.pl3   
  20 C20           -3.2068     4.1931     0.2741 C.ar    
  21 C21           -4.4820     4.4663     0.7587 C.ar    
  22 C22           -5.5878     3.9182     0.1359 C.ar    
  23 C23           -5.4264     3.0991    -0.9677 C.ar    
  24 C24           -4.1597     2.8264    -1.4509 C.ar    
  25 C25           -3.0503     3.3752    -0.8363 C.ar    
  26 I26           -7.1047     2.2699    -1.9082 I       
  27 F27           -4.6394     5.2656     1.8365 F       
  28 C28            0.2696     0.8344     3.2380 C.3     
  29 C29            1.1789     1.9896     2.8139 C.3     
  30 C30            1.5872     2.7967     4.0479 C.3     
  31 O31            2.3396     3.9414     3.6408 O.3     
  32 O32            2.3474     1.4673     2.1783 O.3     
  33 H33            0.2079    -1.9273     3.4030 H       
  34 H34           -0.5839    -2.2558     1.7700 H       
  35 H35            1.4038    -1.2055     0.5950 H       
  36 H36            2.1955    -0.8771     2.2280 H       
  37 H37           -2.0136     2.3244     1.6520 H       
  38 H38            1.0493     0.6253     0.5043 H       
  39 H39            3.5610     1.2370     0.4122 H       
  40 H40            2.9392     0.9211    -1.2374 H       
  41 H41            3.2002     3.1495    -1.7535 H       
  42 H42            3.8197     3.4557    -0.1018 H       
  43 H43           -0.1791     7.2782     0.8253 H       
  44 H44            0.2306     7.2634    -0.9068 H       
  45 H45           -1.4116     6.8266    -0.3769 H       
  46 H46           -2.1983     5.3853     1.6220 H       
  47 H47           -6.5783     4.1291     0.5111 H       
  48 H48           -4.0375     2.1864    -2.3122 H       
  49 H49           -2.0620     3.1648    -1.2175 H       
  50 H50           -0.6991     1.2285     3.5451 H       
  51 H51            0.7255     0.3004     4.0717 H       
  52 H52            0.6445     2.6358     2.1175 H       
  53 H53            0.6939     3.1204     4.5822 H       
  54 H54            2.1973     2.1751     4.7032 H       
  55 H55            2.6323     4.5006     4.3734 H       
  56 H56            2.8730     0.8823     2.7409 H       
@<TRIPOS>BOND
   1    1    2 1
   2    1    3 1
   3    1    4 1
   4    1   28 1
   5    2    3 1
   6    2   33 1
   7    2   34 1
   8    3   35 1
   9    3   36 1
  10    4    5 2
  11    4    6 2
  12    4    7 am
  13    7    9 1
  14    7   37 1
  15    8    9 2
  16    8   13 1
  17    8   14 1
  18    9   10 1
  19   10   11 2
  20   10   19 1
  21   11   12 1
  22   11   18 1
  23   12   13 am
  24   12   17 2
  25   13   16 1
  26   14   15 1
  27   14   38 1
  28   15   16 1
  29   15   39 1
  30   15   40 1
  31   16   41 1
  32   16   42 1
  33   18   43 1
  34   18   44 1
  35   18   45 1
  36   19   20 1
  37   19   46 1
  38   20   21 ar
  39   20   25 ar
  40   21   22 ar
  41   21   27 1
  42   22   23 ar
  43   22   47 1
  44   23   24 ar
  45   23   26 1
  46   24   25 ar
  47   24   48 1
  48   25   49 1
  49   28   29 1
  50   28   50 1
  51   28   51 1
  52   29   30 1
  53   29   32 1
  54   29   52 1
  55   30   31 1
  56   30   53 1
  57   30   54 1
  58   31   55 1
  59   32   56 1

#	End of record

