#	Name: ASD00431208
#	Creating user name:	WinNT
#	Creation time:	15. 06. 2019 18:35

#	Modifying user name:	WinNT
#	Modification time:	15. 06. 2019 18:35

#	Program:	/corina/corina34_cracker 3.40 0067  02.08.2006

@<TRIPOS>MOLECULE
ASD00431208
  49   52    0    0    0
SMALL
NO_CHARGES


@<TRIPOS>ATOM
   1 C1            -0.3790     1.7239     0.7653 C.2     
   2 C2            -0.2201     0.2254     0.7780 C.3     
   3 O3             0.5558     2.4354     1.0669 O.2     
   4 N4            -1.5582     2.2736     0.4135 N.am    
   5 C5            -1.7126     3.7304     0.4012 C.3     
   6 C6            -3.1359     4.0887    -0.0310 C.3     
   7 O7            -3.6972     6.3576     0.9777 O.3     
   8 N8            -3.7301     7.5276     0.6744 N.2     
   9 C9            -3.3612     7.7086    -0.5725 C.2     
  10 C10           -3.0599     6.4137    -1.0863 C.2     
  11 C11           -3.2948     5.5872    -0.0436 C.2     
  12 S12           -2.7779     9.2080    -2.9724 S.3     
  13 C13           -3.0039    10.8969    -2.8349 C.2     
  14 N14           -3.4083    11.2013    -1.6402 N.2     
  15 C15           -3.5651    10.2105    -0.7900 C.2     
  16 C16           -3.2757     8.9934    -1.2960 C.2     
  17 O17           -2.7912    11.7897    -3.8308 O.3     
  18 C18           -2.9118    13.1114    -3.5392 C.ar    
  19 C19           -1.9063    13.7625    -2.8403 C.ar    
  20 C20           -2.0322    15.1109    -2.5449 C.ar    
  21 C21           -3.1635    15.8061    -2.9489 C.ar    
  22 C22           -4.1641    15.1552    -3.6446 C.ar    
  23 C23           -4.0385    13.8123    -3.9455 C.ar    
  24 O24           -1.0488    15.7516    -1.8598 O.3     
  25 C25           -1.2454    17.1411    -1.5902 C.3     
  26 C26           -0.0430    17.6856    -0.8165 C.3     
  27 C27           -0.0075    19.1886    -0.5325 C.3     
  28 C28           -0.2909    18.2021     0.6022 C.3     
  29 H29           -0.4810    -0.1594     1.7639 H       
  30 H30           -0.8783    -0.2161     0.0298 H       
  31 H31            0.8141    -0.0323     0.5495 H       
  32 H32           -2.3046     1.7046     0.1684 H       
  33 H33           -1.5264     4.1239     1.4004 H       
  34 H34           -0.9999     4.1654    -0.2994 H       
  35 H35           -3.3222     3.6951    -1.0302 H       
  36 H36           -3.8487     3.6536     0.6696 H       
  37 H37           -2.7223     6.1536    -2.0786 H       
  38 H38           -3.8969    10.3583     0.2271 H       
  39 H39           -1.0269    13.2198    -2.5265 H       
  40 H40           -3.2620    16.8567    -2.7189 H       
  41 H41           -5.0437    15.6978    -3.9578 H       
  42 H42           -4.8198    13.3068    -4.4937 H       
  43 H43           -1.3479    17.6827    -2.5306 H       
  44 H44           -2.1495    17.2715    -0.9954 H       
  45 H45            0.9067    17.1878    -1.0124 H       
  46 H46            0.9657    19.6795    -0.5412 H       
  47 H47           -0.8407    19.7894    -0.8968 H       
  48 H48           -1.3106    18.1540     0.9843 H       
  49 H49            0.4958    18.0441     1.3400 H       
@<TRIPOS>BOND
   1    1    2 1
   2    1    3 2
   3    1    4 am
   4    2   29 1
   5    2   30 1
   6    2   31 1
   7    4    5 1
   8    4   32 1
   9    5    6 1
  10    5   33 1
  11    5   34 1
  12    6   11 1
  13    6   35 1
  14    6   36 1
  15    7    8 1
  16    7   11 1
  17    8    9 2
  18    9   10 1
  19    9   16 1
  20   10   11 2
  21   10   37 1
  22   12   13 1
  23   12   16 1
  24   13   14 2
  25   13   17 1
  26   14   15 1
  27   15   16 2
  28   15   38 1
  29   17   18 1
  30   18   19 ar
  31   18   23 ar
  32   19   20 ar
  33   19   39 1
  34   20   21 ar
  35   20   24 1
  36   21   22 ar
  37   21   40 1
  38   22   23 ar
  39   22   41 1
  40   23   42 1
  41   24   25 1
  42   25   26 1
  43   25   43 1
  44   25   44 1
  45   26   27 1
  46   26   28 1
  47   26   45 1
  48   27   28 1
  49   27   46 1
  50   27   47 1
  51   28   48 1
  52   28   49 1

#	End of record

