#	Name: ASD02030074
#	Creating user name:	WinNT
#	Creation time:	15. 06. 2019 20:14

#	Modifying user name:	WinNT
#	Modification time:	15. 06. 2019 20:14

#	Program:	/corina/corina34_cracker 3.40 0067  02.08.2006

@<TRIPOS>MOLECULE
ASD02030074
  60   63    0    0    0
SMALL
NO_CHARGES


@<TRIPOS>ATOM
   1 C1             0.6236     0.3378     1.2570 C.ar    
   2 C2             0.0201    -0.0594     0.0766 C.ar    
   3 C3             0.5903     0.2519    -1.1421 C.ar    
   4 C4             1.7790     0.9690    -1.1984 C.ar    
   5 C5             2.4019     1.3780    -0.0143 C.ar    
   6 C6             1.8141     1.0566     1.2257 C.ar    
   7 O7             2.3343     1.2713    -2.3983 O.3     
   8 C8             3.6647     2.1396    -0.0632 C.2     
   9 O9             3.6410     3.3491    -0.1885 O.2     
  10 C10            4.9548     1.4346     0.0397 C.ar    
  11 C11            6.1512     2.1639     0.1129 C.ar    
  12 C12            4.9897     0.0323     0.0706 C.ar    
  13 C13            6.2034    -0.6256     0.1673 C.ar    
  14 C14            7.3909     0.1033     0.2340 C.ar    
  15 C15            7.3604     1.4978     0.2094 C.ar    
  16 O16            6.1227     3.5201     0.0886 O.3     
  17 O17            3.8353    -0.6776     0.0062 O.3     
  18 C18            8.6862    -0.6045     0.3373 C.2     
  19 O19            9.8339     0.0973     0.4019 O.3     
  20 O20            8.7144    -1.8183     0.3639 O.2     
  21 C21           11.0669    -0.6630     0.5020 C.3     
  22 C22           12.2597     0.1547    -0.0444 C.3     
  23 N23           11.9438     1.5851    -0.0321 N.am    
  24 C24           12.5694     2.4208    -0.8846 C.2     
  25 O25           13.3960     1.9874    -1.6639 O.2     
  26 C26           12.2511     3.8620    -0.8723 C.ar    
  27 C27           12.8986     4.7300    -1.7554 C.ar    
  28 C28           11.2972     4.3611     0.0186 C.ar    
  29 C29           11.0028     5.7062     0.0267 C.ar    
  30 C30           11.6529     6.5672    -0.8497 C.ar    
  31 C31           12.5985     6.0738    -1.7410 C.ar    
  32 O32           11.3599     7.8922    -0.8387 O.3     
  33 C33           11.4525    -0.8894     1.9854 C.3     
  34 N34           12.9217    -1.0996     1.9264 N.3     
  35 C35           13.4255    -0.1435     0.9167 C.3     
  36 C36            2.4588     1.4815     2.4859 C.2     
  37 O37            3.5434     2.0276     2.4592 O.2     
  38 O38            1.8436     1.2629     3.6642 O.3     
  39 H39            0.1669     0.0929     2.2045 H       
  40 H40           -0.9039    -0.6176     0.1087 H       
  41 H41            0.1097    -0.0641    -2.0562 H       
  42 H42            1.9823     2.0759    -2.8031 H       
  43 H43            6.2312    -1.7050     0.1915 H       
  44 H44            8.2821     2.0583     0.2609 H       
  45 H45            6.0517     3.9277     0.9626 H       
  46 H46            3.6020    -0.9688    -0.8858 H       
  47 H47           10.9754    -1.6142    -0.0223 H       
  48 H48           12.5086    -0.1685    -1.0551 H       
  49 H49           11.2844     1.9309     0.5896 H       
  50 H50           13.6338     4.3475    -2.4479 H       
  51 H51           10.7914     3.6927     0.6996 H       
  52 H52           10.2654     6.0927     0.7147 H       
  53 H53           13.1016     6.7460    -2.4204 H       
  54 H54           11.9075     8.4111    -0.2337 H       
  55 H55           11.2133    -0.0102     2.5836 H       
  56 H56           10.9531    -1.7734     2.3821 H       
  57 H57           13.3472    -0.9330     2.8260 H       
  58 H58           14.2557    -0.5871     0.3670 H       
  59 H59           13.7488     0.7759     1.4047 H       
  60 H60            2.3043     1.5584     4.4615 H       
@<TRIPOS>BOND
   1    1    2 ar
   2    1    6 ar
   3    1   39 1
   4    2    3 ar
   5    2   40 1
   6    3    4 ar
   7    3   41 1
   8    4    5 ar
   9    4    7 1
  10    5    6 ar
  11    5    8 1
  12    6   36 1
  13    7   42 1
  14    8    9 2
  15    8   10 1
  16   10   11 ar
  17   10   12 ar
  18   11   16 1
  19   11   15 ar
  20   12   13 ar
  21   12   17 1
  22   13   14 ar
  23   13   43 1
  24   14   15 ar
  25   14   18 1
  26   15   44 1
  27   16   45 1
  28   17   46 1
  29   18   19 1
  30   18   20 2
  31   19   21 1
  32   21   33 1
  33   21   22 1
  34   21   47 1
  35   22   23 1
  36   22   35 1
  37   22   48 1
  38   23   24 am
  39   23   49 1
  40   24   25 2
  41   24   26 1
  42   26   27 ar
  43   26   28 ar
  44   27   31 ar
  45   27   50 1
  46   28   29 ar
  47   28   51 1
  48   29   30 ar
  49   29   52 1
  50   30   31 ar
  51   30   32 1
  52   31   53 1
  53   32   54 1
  54   33   34 1
  55   33   55 1
  56   33   56 1
  57   34   35 1
  58   34   57 1
  59   35   58 1
  60   35   59 1
  61   36   37 2
  62   36   38 1
  63   38   60 1

#	End of record

