#	Name: ASD01880520
#	Creating user name:	WinNT
#	Creation time:	15. 06. 2019 19:40

#	Modifying user name:	WinNT
#	Modification time:	15. 06. 2019 19:40

#	Program:	/corina/corina34_cracker 3.40 0067  02.08.2006

@<TRIPOS>MOLECULE
ASD01880520
  49   52    0    0    0
SMALL
NO_CHARGES


@<TRIPOS>ATOM
   1 N1             0.0056     1.3292    -0.1720 N.ar    
   2 C2             0.0069     0.0116    -0.1813 C.ar    
   3 N3             1.1161    -0.6850    -0.0188 N.ar    
   4 C4             2.2807    -0.0820     0.1613 C.ar    
   5 C5             2.3297     1.3010     0.1787 C.ar    
   6 C6             1.1376     2.0085     0.0038 C.ar    
   7 C7             3.6355     2.0254     0.3810 C.3     
   8 O8             4.6669     1.0779     0.6650 O.3     
   9 C9             5.9143     1.5694     0.8747 C.ar    
  10 C10            6.9651     0.7016     1.1560 C.ar    
  11 C11            8.2266     1.2000     1.3675 C.ar    
  12 C12            8.4637     2.5771     1.3020 C.ar    
  13 C13            7.4049     3.4442     1.0187 C.ar    
  14 C14            6.1423     2.9384     0.8026 C.ar    
  15 C15            9.5522     0.5544     1.6856 C.3     
  16 N16           10.5255     1.6474     1.7907 N.am    
  17 C17            9.8933     2.8125     1.5687 C.2     
  18 O18           10.4257     3.9055     1.5852 O.2     
  19 Cl19          -1.4926    -0.8318    -0.4132 Cl      
  20 C20            1.1330     3.4911     0.0133 C.ar    
  21 C21            2.1009     4.1957    -0.7028 C.ar    
  22 C22            2.0979     5.5727    -0.6944 C.ar    
  23 C23            1.1246     6.2641     0.0313 C.ar    
  24 C24            0.1554     5.5574     0.7478 C.ar    
  25 C25            0.1573     4.1805     0.7336 C.ar    
  26 C26            1.1207     7.6961     0.0413 C.1     
  27 N27            1.1176     8.8321     0.0491 N.1     
  28 C28           14.2198     1.1645     1.0945 C.3     
  29 C29           12.7305     1.3247     0.7830 C.3     
  30 C30           11.9516     1.4940     2.0889 C.3     
  31 H31            3.1819    -0.6624     0.2936 H       
  32 H32            3.8887     2.5777    -0.5239 H       
  33 H33            3.5402     2.7198     1.2158 H       
  34 H34            6.7884    -0.3625     1.2082 H       
  35 H35            7.5772     4.5091     0.9663 H       
  36 H36            5.3246     3.6090     0.5834 H       
  37 H37            9.4895     0.0163     2.6314 H       
  38 H38            9.8390    -0.1269     0.8845 H       
  39 H39            2.8531     3.6610    -1.2637 H       
  40 H40            2.8478     6.1179    -1.2483 H       
  41 H41           -0.5973     6.0908     1.3094 H       
  42 H42           -0.5920     3.6339     1.2870 H       
  43 H43           14.5786     2.0499     1.6193 H       
  44 H44           14.3673     0.2856     1.7220 H       
  45 H45           14.7747     1.0439     0.1641 H       
  46 H46           12.5830     2.2036     0.1554 H       
  47 H47           12.3718     0.4393     0.2582 H       
  48 H48           12.3103     2.3795     2.6137 H       
  49 H49           12.0991     0.6151     2.7165 H       
@<TRIPOS>BOND
   1    1    2 ar
   2    1    6 ar
   3    2    3 ar
   4    2   19 1
   5    3    4 ar
   6    4    5 ar
   7    4   31 1
   8    5    6 ar
   9    5    7 1
  10    6   20 1
  11    7    8 1
  12    7   32 1
  13    7   33 1
  14    8    9 1
  15    9   10 ar
  16    9   14 ar
  17   10   11 ar
  18   10   34 1
  19   11   12 ar
  20   11   15 1
  21   12   13 ar
  22   12   17 1
  23   13   14 ar
  24   13   35 1
  25   14   36 1
  26   15   16 1
  27   15   37 1
  28   15   38 1
  29   16   17 am
  30   16   30 1
  31   17   18 2
  32   20   21 ar
  33   20   25 ar
  34   21   22 ar
  35   21   39 1
  36   22   23 ar
  37   22   40 1
  38   23   24 ar
  39   23   26 1
  40   24   25 ar
  41   24   41 1
  42   25   42 1
  43   26   27 3
  44   28   29 1
  45   28   43 1
  46   28   44 1
  47   28   45 1
  48   29   30 1
  49   29   46 1
  50   29   47 1
  51   30   48 1
  52   30   49 1

#	End of record

