#	Name: ASD01150101
#	Creating user name:	WinNT
#	Creation time:	15. 06. 2019 19:03

#	Modifying user name:	WinNT
#	Modification time:	15. 06. 2019 19:03

#	Program:	/corina/corina34_cracker 3.40 0067  02.08.2006

@<TRIPOS>MOLECULE
ASD01150101
  17   16    0    0    0
SMALL
NO_CHARGES


@<TRIPOS>ATOM
   1 C1            -0.0187     1.5258     0.0104 C.3     
   2 C2             0.0021    -0.0041     0.0020 C.3     
   3 C3             0.7421    -0.5109     1.2415 C.3     
   4 N4             0.7619    -1.9757     1.2335 N.am    
   5 C5             1.3642    -2.6470     2.2350 C.2     
   6 N6             1.3825    -3.9947     2.2276 N.am    
   7 O7             1.8911    -2.0369     3.1452 O.2     
   8 H8             1.0039     1.9031     0.0027 H       
   9 H9            -0.5459     1.8868    -0.8726 H       
  10 H10           -0.5289     1.8773     0.9072 H       
  11 H11           -1.0205    -0.3814     0.0098 H       
  12 H12            0.5123    -0.3556    -0.8948 H       
  13 H13            1.7647    -0.1336     1.2338 H       
  14 H14            0.2319    -0.1594     2.1383 H       
  15 H15            0.3416    -2.4625     0.5073 H       
  16 H16            0.9622    -4.4814     1.5015 H       
  17 H17            1.8160    -4.4778     2.9484 H       
@<TRIPOS>BOND
   1    1    2 1
   2    1    8 1
   3    1    9 1
   4    1   10 1
   5    2    3 1
   6    2   11 1
   7    2   12 1
   8    3    4 1
   9    3   13 1
  10    3   14 1
  11    4    5 am
  12    4   15 1
  13    5    6 am
  14    5    7 2
  15    6   16 1
  16    6   17 1

#	End of record

