#	Name: ASD06700001
#	Creating user name:	WinNT
#	Creation time:	15. 06. 2019 21:08

#	Modifying user name:	WinNT
#	Modification time:	15. 06. 2019 21:08

#	Program:	/corina/corina34_cracker 3.40 0067  02.08.2006

@<TRIPOS>MOLECULE
ASD06700001
  25   26    0    0    0
SMALL
NO_CHARGES


@<TRIPOS>ATOM
   1 N1             4.2558     5.3943     1.0670 N.2     
   2 C2             3.7390     6.1065     0.0637 C.2     
   3 N3             3.1387     5.5031    -0.9790 N.am    
   4 C4             3.0502     4.1462    -1.0250 C.2     
   5 C5             3.5767     3.4118    -0.0032 C.2     
   6 C6             4.1933     4.0781     1.0648 C.2     
   7 O7             3.8114     7.3240     0.0923 O.2     
   8 O8             3.5036     2.0530    -0.0199 O.3     
   9 C9             4.6623     1.3533    -0.1384 C.ar    
  10 C10            4.6509    -0.0309    -0.0456 C.ar    
  11 C11            5.8305    -0.7399    -0.1664 C.ar    
  12 C12            7.0216    -0.0713    -0.3796 C.ar    
  13 C13            7.0358     1.3085    -0.4726 C.ar    
  14 C14            5.8586     2.0217    -0.3582 C.ar    
  15 C15            8.3361     2.0340    -0.7050 C.3     
  16 H16            2.7680     6.0369    -1.6992 H       
  17 H17            2.5692     3.6571    -1.8591 H       
  18 H18            4.6164     3.5144     1.8830 H       
  19 H19            3.7207    -0.5537     0.1213 H       
  20 H20            5.8221    -1.8175    -0.0938 H       
  21 H21            7.9426    -0.6274    -0.4734 H       
  22 H22            5.8703     3.0992    -0.4309 H       
  23 H23            8.5054     2.1420    -1.7764 H       
  24 H24            8.2894     3.0202    -0.2433 H       
  25 H25            9.1539     1.4644    -0.2636 H       
@<TRIPOS>BOND
   1    1    2 1
   2    1    6 2
   3    2    3 am
   4    2    7 2
   5    3    4 1
   6    3   16 1
   7    4    5 2
   8    4   17 1
   9    5    6 1
  10    5    8 1
  11    6   18 1
  12    8    9 1
  13    9   10 ar
  14    9   14 ar
  15   10   11 ar
  16   10   19 1
  17   11   12 ar
  18   11   20 1
  19   12   13 ar
  20   12   21 1
  21   13   14 ar
  22   13   15 1
  23   14   22 1
  24   15   23 1
  25   15   24 1
  26   15   25 1

#	End of record

