#	Name: ASD01120222
#	Creating user name:	WinNT
#	Creation time:	15. 06. 2019 18:59

#	Modifying user name:	WinNT
#	Modification time:	15. 06. 2019 18:59

#	Program:	/corina/corina34_cracker 3.40 0067  02.08.2006

@<TRIPOS>MOLECULE
ASD01120222
  34   35    0    0    0
SMALL
NO_CHARGES


@<TRIPOS>ATOM
   1 S1            -0.0064     2.1002    -0.2714 S.3     
   2 C2            -0.2072     0.3558    -0.1422 C.2     
   3 N3             0.9428    -0.1963     0.0913 N.2     
   4 C4             1.9946     0.6184     0.1830 C.2     
   5 C5             1.7227     1.9268     0.0191 C.2     
   6 C6             5.5411    -0.1232     0.3404 C.2     
   7 C7             5.0978    -1.0072     1.2545 C.2     
   8 C8             3.6976    -0.8573     1.3289 C.2     
   9 C9             3.3609     0.1207     0.4463 C.2     
  10 O10            4.4895     0.5610    -0.1420 O.3     
  11 C11            2.7255     3.0503     0.0740 C.3     
  12 C12            2.9440     3.4681     1.5296 C.3     
  13 C13            4.0629     4.5094     1.5988 C.3     
  14 C14            1.6523     4.0697     2.0869 C.3     
  15 N15           -1.4083    -0.3224    -0.2702 N.pl3   
  16 P16            7.2712     0.1107    -0.1523 P.3     
  17 O17            7.3461     1.1709    -1.3617 O.3     
  18 O18            8.0476     0.6209     0.9998 O.2     
  19 O19            7.8871    -1.2968    -0.6336 O.3     
  20 H20            5.7005    -1.7001     1.8227 H       
  21 H21            3.0230    -1.4123     1.9640 H       
  22 H22            3.6705     2.7151    -0.3535 H       
  23 H23            2.3502     3.9005    -0.4956 H       
  24 H24            3.2228     2.5954     2.1202 H       
  25 H25            3.7841     5.3821     1.0082 H       
  26 H26            4.2185     4.8071     2.6358 H       
  27 H27            4.9831     4.0808     1.2018 H       
  28 H28            1.8369     4.4647     3.0859 H       
  29 H29            1.3154     4.8751     1.4342 H       
  30 H30            0.8844     3.2978     2.1376 H       
  31 H31           -2.2263     0.1687    -0.4454 H       
  32 H32           -1.4314    -1.2883    -0.1847 H       
  33 H33            6.8583     0.9013    -2.1519 H       
  34 H34            8.8117    -1.2467    -0.9123 H       
@<TRIPOS>BOND
   1    1    2 1
   2    1    5 1
   3    2    3 2
   4    2   15 1
   5    3    4 1
   6    4    5 2
   7    4    9 1
   8    5   11 1
   9    6    7 2
  10    6   16 1
  11    6   10 1
  12    7    8 1
  13    7   20 1
  14    8    9 2
  15    8   21 1
  16    9   10 1
  17   11   12 1
  18   11   22 1
  19   11   23 1
  20   12   13 1
  21   12   14 1
  22   12   24 1
  23   13   25 1
  24   13   26 1
  25   13   27 1
  26   14   28 1
  27   14   29 1
  28   14   30 1
  29   15   31 1
  30   15   32 1
  31   16   17 1
  32   16   18 2
  33   16   19 1
  34   17   33 1
  35   19   34 1

#	End of record

