#	Name: ASD01510044
#	Creating user name:	WinNT
#	Creation time:	15. 06. 2019 19:21

#	Modifying user name:	WinNT
#	Modification time:	15. 06. 2019 19:21

#	Program:	/corina/corina34_cracker 3.40 0067  02.08.2006

@<TRIPOS>MOLECULE
ASD01510044
  36   37    0    0    0
SMALL
NO_CHARGES


@<TRIPOS>ATOM
   1 C1            -0.0320     1.4068     0.0272 C.3     
   2 O2            -0.0113    -0.0220     0.0138 O.3     
   3 C3            -1.2107    -0.6552     0.0167 C.ar    
   4 N4            -2.3412     0.0431     0.0313 N.ar    
   5 C5            -3.5163    -0.5674     0.0338 C.ar    
   6 N6            -4.6728     0.1968     0.0487 N.pl3   
   7 N7            -3.6171    -1.8877     0.0218 N.ar    
   8 C8            -2.5315    -2.6538     0.0069 C.ar    
   9 C9            -1.2749    -2.0484    -0.0016 C.ar    
  10 S10            0.1951    -3.0197    -0.0220 S.3     
  11 C11            0.4334    -3.1774    -1.7607 C.ar    
  12 N12           -0.4319    -2.6058    -2.5863 N.ar    
  13 C13           -0.2855    -2.7026    -3.8990 C.ar    
  14 C14            0.7862    -3.4108    -4.4093 C.ar    
  15 C15            1.6806    -4.0017    -3.5155 C.ar    
  16 N16            1.4766    -3.8602    -2.2108 N.ar    
  17 N17            2.7725    -4.7237    -3.9843 N.am    
  18 C18            3.6866    -5.2020    -3.1171 C.2     
  19 O19            3.6084    -4.9245    -1.9392 O.2     
  20 C20            4.8058    -6.0819    -3.6112 C.3     
  21 O21           -2.6437    -4.0054    -0.0048 O.3     
  22 C22           -3.9662    -4.5466    -0.0002 C.3     
  23 H23            0.9903     1.7850     0.0232 H       
  24 H24           -0.5575     1.7708    -0.8557 H       
  25 H25           -0.5446     1.7544     0.9241 H       
  26 H26           -4.6143     1.1650     0.0573 H       
  27 H27           -5.5406    -0.2366     0.0507 H       
  28 H28           -0.9960    -2.2336    -4.5635 H       
  29 H29            0.9280    -3.5051    -5.4758 H       
  30 H30            2.8763    -4.8830    -4.9354 H       
  31 H31            4.7115    -6.2192    -4.6884 H       
  32 H32            5.7634    -5.6118    -3.3873 H       
  33 H33            4.7521    -7.0511    -3.1153 H       
  34 H34           -3.9133    -5.6353    -0.0106 H       
  35 H35           -4.4906    -4.2169     0.8967 H       
  36 H36           -4.5035    -4.2005    -0.8831 H       
@<TRIPOS>BOND
   1    1    2 1
   2    1   23 1
   3    1   24 1
   4    1   25 1
   5    2    3 1
   6    3    4 ar
   7    3    9 ar
   8    4    5 ar
   9    5    6 1
  10    5    7 ar
  11    6   26 1
  12    6   27 1
  13    7    8 ar
  14    8    9 ar
  15    8   21 1
  16    9   10 1
  17   10   11 1
  18   11   12 ar
  19   11   16 ar
  20   12   13 ar
  21   13   14 ar
  22   13   28 1
  23   14   15 ar
  24   14   29 1
  25   15   16 ar
  26   15   17 1
  27   17   18 am
  28   17   30 1
  29   18   19 2
  30   18   20 1
  31   20   31 1
  32   20   32 1
  33   20   33 1
  34   21   22 1
  35   22   34 1
  36   22   35 1
  37   22   36 1

#	End of record

