#	Name: ASD03331567
#	Creating user name:	WinNT
#	Creation time:	15. 06. 2019 20:39

#	Modifying user name:	WinNT
#	Modification time:	15. 06. 2019 20:39

#	Program:	/corina/corina34_cracker 3.40 0067  02.08.2006

@<TRIPOS>MOLECULE
ASD03331567
  59   61    0    0    0
SMALL
NO_CHARGES


@<TRIPOS>ATOM
   1 C1             0.6581     1.3076    -1.8156 C.ar    
   2 C2             0.7592    -0.0797    -1.9222 C.ar    
   3 C3             1.8348     2.1086    -1.4132 C.2     
   4 N4             1.9981     3.4460    -1.6285 N.pl3   
   5 C5             3.2190     3.7889    -1.1317 C.2     
   6 C6             3.7669     2.6651    -0.5974 C.2     
   7 N7             2.8926     1.6518    -0.7848 N.2     
   8 C8             5.0767     2.5701     0.0712 C.2     
   9 O9             5.7752     3.5594     0.1836 O.2     
  10 N10            5.5005     1.3871     0.5583 N.am    
  11 C11            6.8026     1.2927     1.2230 C.3     
  12 C12            7.3159    -0.1208     1.1239 C.2     
  13 C13            6.6525     1.6788     2.6958 C.3     
  14 C14            5.6160     0.7691     3.3584 C.3     
  15 C15            7.9989     1.5188     3.4047 C.3     
  16 C16            6.1925     3.1345     2.7971 C.3     
  17 C17           -0.3427    -0.8227    -2.2988 C.ar    
  18 C18           -1.5477    -0.1903    -2.5706 C.ar    
  19 C19           -1.6512     1.1873    -2.4661 C.ar    
  20 C20           -0.5550     1.9379    -2.0954 C.ar    
  21 F21           -2.6233    -0.9203    -2.9387 F       
  22 F22           -0.2471    -2.1662    -2.4031 F       
  23 N23            8.6244    -0.3778     1.3194 N.am    
  24 O24            6.5514    -1.0270     0.8683 O.2     
  25 C25           10.6446    -1.7532     1.4091 C.3     
  26 C26            9.1415    -1.7345     1.1246 C.3     
  27 C27            1.0419     4.3631    -2.2537 C.3     
  28 C28            1.8007     5.5317    -2.8875 C.3     
  29 O29            1.9926     6.5677    -1.9226 O.3     
  30 C30            2.7621     6.1906    -0.7843 C.3     
  31 C31            3.8225     5.1668    -1.2026 C.3     
  32 H32            1.6971    -0.5718    -1.7110 H       
  33 H33            4.9434     0.5981     0.4687 H       
  34 H34            7.5071     1.9697     0.7398 H       
  35 H35            5.9437    -0.2680     3.2863 H       
  36 H36            5.5091     1.0441     4.4077 H       
  37 H37            4.6568     0.8830     2.8534 H       
  38 H38            8.7383     2.1638     2.9300 H       
  39 H39            7.8929     1.7979     4.4531 H       
  40 H40            8.3246     0.4809     3.3361 H       
  41 H41            5.2333     3.2484     2.2921 H       
  42 H42            6.0856     3.4095     3.8464 H       
  43 H43            6.9309     3.7825     2.3251 H       
  44 H44           -2.5910     1.6748    -2.6794 H       
  45 H45           -0.6377     3.0117    -2.0142 H       
  46 H46            9.2237     0.3356     1.5892 H       
  47 H47           10.8236    -1.4405     2.4378 H       
  48 H48           11.0294    -2.7627     1.2641 H       
  49 H49           11.1519    -1.0698     0.7281 H       
  50 H50            8.6343    -2.4180     1.8055 H       
  51 H51            8.9625    -2.0473     0.0958 H       
  52 H52            0.4802     3.8338    -3.0234 H       
  53 H53            0.3546     4.7429    -1.4977 H       
  54 H54            2.7706     5.1835    -3.2426 H       
  55 H55            1.2275     5.9219    -3.7286 H       
  56 H56            3.2513     7.0713    -0.3683 H       
  57 H57            2.1073     5.7494    -0.0328 H       
  58 H58            4.6757     5.2273    -0.5270 H       
  59 H59            4.1462     5.3720    -2.2230 H       
@<TRIPOS>BOND
   1    1    2 ar
   2    1    3 1
   3    1   20 ar
   4    2   17 ar
   5    2   32 1
   6    3    4 1
   7    3    7 2
   8    4    5 1
   9    4   27 1
  10    5    6 2
  11    5   31 1
  12    6    7 1
  13    6    8 1
  14    8    9 2
  15    8   10 am
  16   10   11 1
  17   10   33 1
  18   11   13 1
  19   11   12 1
  20   11   34 1
  21   12   23 am
  22   12   24 2
  23   13   14 1
  24   13   15 1
  25   13   16 1
  26   14   35 1
  27   14   36 1
  28   14   37 1
  29   15   38 1
  30   15   39 1
  31   15   40 1
  32   16   41 1
  33   16   42 1
  34   16   43 1
  35   17   18 ar
  36   17   22 1
  37   18   19 ar
  38   18   21 1
  39   19   20 ar
  40   19   44 1
  41   20   45 1
  42   23   26 1
  43   23   46 1
  44   25   26 1
  45   25   47 1
  46   25   48 1
  47   25   49 1
  48   26   50 1
  49   26   51 1
  50   27   28 1
  51   27   52 1
  52   27   53 1
  53   28   29 1
  54   28   54 1
  55   28   55 1
  56   29   30 1
  57   30   31 1
  58   30   56 1
  59   30   57 1
  60   31   58 1
  61   31   59 1

#	End of record

