#	Name: ASD08170176
#	Creating user name:	WinNT
#	Creation time:	15. 06. 2019 21:17

#	Modifying user name:	WinNT
#	Modification time:	15. 06. 2019 21:17

#	Program:	/corina/corina34_cracker 3.40 0067  02.08.2006

@<TRIPOS>MOLECULE
ASD08170176
  66   69    0    0    0
SMALL
NO_CHARGES


@<TRIPOS>ATOM
   1 C1            -0.3149     1.4453    -0.0572 C.ar    
   2 C2            -0.2679    -0.0610    -0.0581 C.3     
   3 C3            -0.2311    -0.5632     1.3623 C.2     
   4 N4            -0.1861    -1.8877     1.6078 N.am    
   5 O5            -0.2419     0.2244     2.2845 O.2     
   6 C6            -0.1521    -2.3512     2.9186 C.2     
   7 S7            -0.0868    -3.9954     3.3949 S.3     
   8 N8            -0.1589    -1.6089     3.9845 N.2     
   9 N9            -0.1234    -2.1909     5.1043 N.2     
  10 C10           -0.0816    -3.4853     5.0835 C.2     
  11 C11           -0.0325    -4.3925     6.2859 C.3     
  12 C12           -1.4573    -4.7509     6.7128 C.3     
  13 C13           -1.4075    -5.6719     7.9336 C.3     
  14 C14           -2.8324    -6.0303     8.3605 C.3     
  15 C15           -2.7833    -6.9375     9.5629 C.2     
  16 N16           -2.7851    -6.5631    10.8028 N.2     
  17 S17           -2.7208    -8.7001     9.5345 S.3     
  18 C18           -2.6967    -8.7075    11.2474 C.2     
  19 N19           -2.7392    -7.4798    11.6697 N.2     
  20 N20           -2.6458    -9.8403    12.0526 N.am    
  21 C21           -2.6316    -9.7134    13.3943 C.2     
  22 C22           -2.5765   -10.9410    14.2667 C.3     
  23 O23           -2.6633    -8.6113    13.8995 O.2     
  24 C24            0.8599     2.1735    -0.0746 C.ar    
  25 C25            0.8168     3.5551    -0.0738 C.ar    
  26 C26           -0.4012     4.2087    -0.0560 C.ar    
  27 C27           -1.5761     3.4805    -0.0394 C.ar    
  28 C28           -1.5330     2.0988    -0.0447 C.ar    
  29 C29           -2.5709   -10.5275    15.7158 C.ar    
  30 C30           -1.3621    -9.9117    17.6890 C.ar    
  31 C31           -1.3709   -10.2907    16.3610 C.ar    
  32 C32           -3.7659   -10.3802    16.3958 C.ar    
  33 C33           -3.7644   -10.0010    17.7238 C.ar    
  34 C34           -2.5606    -9.7678    18.3765 C.ar    
  35 N35           -2.5553    -9.3846    19.7196 N.pl3   
  36 C36           -1.2862    -9.2591    20.4406 C.3     
  37 C37           -3.8190    -9.1082    20.4074 C.3     
  38 H38           -1.1537    -0.4518    -0.5588 H       
  39 H39            0.6252    -0.3963    -0.5853 H       
  40 H40           -0.1774    -2.5176     0.8702 H       
  41 H41            0.5107    -5.3028     6.0323 H       
  42 H42            0.4749    -3.8829     7.1050 H       
  43 H43           -2.0005    -3.8406     6.9664 H       
  44 H44           -1.9647    -5.2605     5.8937 H       
  45 H45           -0.8643    -6.5822     7.6800 H       
  46 H46           -0.9001    -5.1623     8.7527 H       
  47 H47           -3.3755    -5.1200     8.6141 H       
  48 H48           -3.3397    -6.5399     7.5413 H       
  49 H49           -2.6205   -10.7218    11.6485 H       
  50 H50           -3.4479   -11.5656    14.0705 H       
  51 H51           -1.6692   -11.5033    14.0458 H       
  52 H52            1.8115     1.6629    -0.0886 H       
  53 H53            1.7348     4.1241    -0.0867 H       
  54 H54           -0.4348     5.2881    -0.0546 H       
  55 H55           -2.5276     3.9910    -0.0252 H       
  56 H56           -2.4509     1.5299    -0.0318 H       
  57 H57           -0.4246    -9.7266    18.1922 H       
  58 H58           -0.4395   -10.4027    15.8259 H       
  59 H59           -4.7015   -10.5616    15.8878 H       
  60 H60           -4.6981    -9.8854    18.2541 H       
  61 H61           -0.9090    -8.2417    20.3378 H       
  62 H62           -1.4440    -9.4833    21.4956 H       
  63 H63           -0.5614    -9.9591    20.0250 H       
  64 H64           -4.6405    -9.1605    19.6930 H       
  65 H65           -3.9738    -9.8469    21.1938 H       
  66 H66           -3.7828    -8.1115    20.8471 H       
@<TRIPOS>BOND
   1    1    2 1
   2    1   24 ar
   3    1   28 ar
   4    2    3 1
   5    2   38 1
   6    2   39 1
   7    3    4 am
   8    3    5 2
   9    4    6 1
  10    4   40 1
  11    6    8 2
  12    6    7 1
  13    7   10 1
  14    8    9 1
  15    9   10 2
  16   10   11 1
  17   11   12 1
  18   11   41 1
  19   11   42 1
  20   12   13 1
  21   12   43 1
  22   12   44 1
  23   13   14 1
  24   13   45 1
  25   13   46 1
  26   14   15 1
  27   14   47 1
  28   14   48 1
  29   15   17 1
  30   15   16 2
  31   16   19 1
  32   17   18 1
  33   18   19 2
  34   18   20 1
  35   20   21 am
  36   20   49 1
  37   21   22 1
  38   21   23 2
  39   22   29 1
  40   22   50 1
  41   22   51 1
  42   24   25 ar
  43   24   52 1
  44   25   26 ar
  45   25   53 1
  46   26   27 ar
  47   26   54 1
  48   27   28 ar
  49   27   55 1
  50   28   56 1
  51   29   32 ar
  52   29   31 ar
  53   30   31 ar
  54   30   34 ar
  55   30   57 1
  56   31   58 1
  57   32   33 ar
  58   32   59 1
  59   33   34 ar
  60   33   60 1
  61   34   35 1
  62   35   36 1
  63   35   37 1
  64   36   61 1
  65   36   62 1
  66   36   63 1
  67   37   64 1
  68   37   65 1
  69   37   66 1

#	End of record

