#	Name: ASD03331914
#	Creating user name:	WinNT
#	Creation time:	15. 06. 2019 20:40

#	Modifying user name:	WinNT
#	Modification time:	15. 06. 2019 20:40

#	Program:	/corina/corina34_cracker 3.40 0067  02.08.2006

@<TRIPOS>MOLECULE
ASD03331914
  63   65    0    0    0
SMALL
NO_CHARGES


@<TRIPOS>ATOM
   1 C1            -0.0612     1.9742     1.7612 C.2     
   2 N2            -0.1454     0.6798     2.1673 N.pl3   
   3 C3             1.0776     0.1083     1.9697 C.2     
   4 N4             1.8896     1.0158     1.4806 N.2     
   5 C5             1.2185     2.1801     1.3425 C.2     
   6 C6             1.7716     3.4460     0.8296 C.2     
   7 O7             1.0634     4.4318     0.7518 O.2     
   8 N8             3.0621     3.5115     0.4468 N.am    
   9 C9             3.6120     4.7700    -0.0631 C.3     
  10 C10            3.3148     4.8873    -1.5593 C.3     
  11 C11            4.0365     3.7677    -2.3120 C.3     
  12 C12            5.1028     4.7922     0.1562 C.2     
  13 C13            1.8071     4.7680    -1.7907 C.3     
  14 C14            3.8036     6.2437    -2.0716 C.3     
  15 O15            5.6897     3.7689     0.4378 O.2     
  16 N16            5.7839     5.9494     0.0395 N.am    
  17 C17            7.2422     5.9583     0.1794 C.3     
  18 C18           -1.3387     0.0409     2.7289 C.3     
  19 C19           -2.5491     0.3814     1.8539 C.3     
  20 C20           -3.1706     1.6937     2.3210 C.3     
  21 N21           -2.1467     2.6130     2.8214 N.3     
  22 C22           -1.1892     2.9731     1.7651 C.3     
  23 C23           -2.7580     3.8125     3.4091 C.3     
  24 C24            1.4296    -1.2991     2.2590 C.ar    
  25 C25            2.1178    -2.0587     1.3111 C.ar    
  26 C26            1.0803    -1.8715     3.4826 C.ar    
  27 C27            1.4114    -3.1844     3.7464 C.ar    
  28 C28            2.0886    -3.9343     2.8008 C.ar    
  29 C29            2.4432    -3.3723     1.5880 C.ar    
  30 Cl30           2.5629    -1.3544    -0.2119 Cl      
  31 C31            2.4467    -5.3679     3.0965 C.3     
  32 H32            3.6269     2.7253     0.5089 H       
  33 H33            3.1546     5.6067     0.4649 H       
  34 H34            3.6883     2.8014    -1.9471 H       
  35 H35            3.8248     3.8513    -3.3779 H       
  36 H36            5.1106     3.8528    -2.1471 H       
  37 H37            1.2930     5.5656    -1.2545 H       
  38 H38            1.5954     4.8516    -2.8567 H       
  39 H39            1.4589     3.8017    -1.4258 H       
  40 H40            4.8453     6.3866    -1.7842 H       
  41 H41            3.7189     6.2738    -3.1578 H       
  42 H42            3.1948     7.0368    -1.6375 H       
  43 H43            5.3086     6.7762    -0.1372 H       
  44 H44            7.5145     5.5911     1.1689 H       
  45 H45            7.6841     5.3147    -0.5813 H       
  46 H46            7.6130     6.9757     0.0546 H       
  47 H47           -1.1973    -1.0397     2.7508 H       
  48 H48           -1.5062     0.4081     3.7414 H       
  49 H49           -2.2299     0.4806     0.8164 H       
  50 H50           -3.2875    -0.4167     1.9303 H       
  51 H51           -3.6921     2.1599     1.4850 H       
  52 H52           -3.8859     1.4873     3.1172 H       
  53 H53           -0.7926     3.9700     1.9571 H       
  54 H54           -1.6914     2.9594     0.7978 H       
  55 H55           -3.4028     3.5224     4.2386 H       
  56 H56           -1.9753     4.4782     3.7728 H       
  57 H57           -3.3496     4.3270     2.6518 H       
  58 H58            0.5521    -1.2876     4.2219 H       
  59 H59            1.1417    -3.6280     4.6934 H       
  60 H60            2.9716    -3.9629     0.8543 H       
  61 H61            1.6368    -6.0197     2.7688 H       
  62 H62            3.3619    -5.6307     2.5659 H       
  63 H63            2.6004    -5.4904     4.1687 H       
@<TRIPOS>BOND
   1    1    2 1
   2    1    5 2
   3    1   22 1
   4    2    3 1
   5    2   18 1
   6    3    4 2
   7    3   24 1
   8    4    5 1
   9    5    6 1
  10    6    7 2
  11    6    8 am
  12    8    9 1
  13    8   32 1
  14    9   10 1
  15    9   12 1
  16    9   33 1
  17   10   11 1
  18   10   13 1
  19   10   14 1
  20   11   34 1
  21   11   35 1
  22   11   36 1
  23   12   15 2
  24   12   16 am
  25   13   37 1
  26   13   38 1
  27   13   39 1
  28   14   40 1
  29   14   41 1
  30   14   42 1
  31   16   17 1
  32   16   43 1
  33   17   44 1
  34   17   45 1
  35   17   46 1
  36   18   19 1
  37   18   47 1
  38   18   48 1
  39   19   20 1
  40   19   49 1
  41   19   50 1
  42   20   21 1
  43   20   51 1
  44   20   52 1
  45   21   22 1
  46   21   23 1
  47   22   53 1
  48   22   54 1
  49   23   55 1
  50   23   56 1
  51   23   57 1
  52   24   25 ar
  53   24   26 ar
  54   25   30 1
  55   25   29 ar
  56   26   27 ar
  57   26   58 1
  58   27   28 ar
  59   27   59 1
  60   28   29 ar
  61   28   31 1
  62   29   60 1
  63   31   61 1
  64   31   62 1
  65   31   63 1

#	End of record

