#	Name: ASD09890052
#	Creating user name:	WinNT
#	Creation time:	15. 06. 2019 21:24

#	Modifying user name:	WinNT
#	Modification time:	15. 06. 2019 21:24

#	Program:	/corina/corina34_cracker 3.40 0067  02.08.2006

@<TRIPOS>MOLECULE
ASD09890052
  41   43    0    0    0
SMALL
NO_CHARGES


@<TRIPOS>ATOM
   1 C1             6.7473     2.0873     2.0082 C.ar    
   2 C2             6.6061     3.2725     2.7055 C.ar    
   3 C3             5.4919     4.0652     2.5028 C.ar    
   4 C4             4.5192     3.6729     1.6024 C.ar    
   5 C5             4.6608     2.4882     0.9044 C.ar    
   6 C6             5.7743     1.6948     1.1081 C.ar    
   7 C7             3.9933     2.4980    -1.4643 C.2     
   8 N8             3.5960     3.6463    -2.0966 N.pl3   
   9 C9             4.1974     3.6180    -3.3250 C.2     
  10 N10            4.8990     2.5097    -3.3834 N.2     
  11 N11            4.7790     1.8571    -2.2829 N.2     
  12 S12            4.0565     4.8371    -4.5893 S.3     
  13 C13            5.1118     4.0961    -5.8595 C.3     
  14 C14            5.0452     4.9400    -7.1339 C.3     
  15 C15            6.5559     4.0448    -5.3565 C.3     
  16 C16            2.7486     4.6427    -1.5906 C.ar    
  17 C17            3.2473     5.9106    -1.3248 C.ar    
  18 C18            2.4103     6.8901    -0.8269 C.ar    
  19 C19            1.0768     6.6087    -0.5932 C.ar    
  20 C20            0.5773     5.3466    -0.8570 C.ar    
  21 C21            1.4083     4.3646    -1.3600 C.ar    
  22 H22            7.3661     3.5790     3.4090 H       
  23 C23            3.6001     2.0603    -0.0769 C.3     
  24 H24            7.6200     1.4703     2.1633 H       
  25 H25            5.3812     4.9908     3.0481 H       
  26 H26            3.6483     4.2919     1.4445 H       
  27 H27            5.8852     0.7694     0.5625 H       
  28 H28            4.7659     3.0850    -6.0747 H       
  29 H29            5.3911     5.9510    -6.9186 H       
  30 H30            5.6807     4.4938    -7.8988 H       
  31 H31            4.0164     4.9765    -7.4922 H       
  32 H32            6.6033     3.4436    -4.4486 H       
  33 H33            7.1914     3.5986    -6.1215 H       
  34 H34            6.9017     5.0558    -5.1413 H       
  35 H35            4.2889     6.1309    -1.5068 H       
  36 H36            2.7979     7.8766    -0.6196 H       
  37 H37            0.4243     7.3760    -0.2036 H       
  38 H38           -0.4647     5.1297    -0.6735 H       
  39 H39            1.0175     3.3791    -1.5661 H       
  40 H40            3.4996     0.9752    -0.0531 H       
  41 H41            2.6490     2.5193     0.1930 H       
@<TRIPOS>BOND
   1    1    2 ar
   2    1    6 ar
   3    1   24 1
   4    2    3 ar
   5    2   22 1
   6    3    4 ar
   7    3   25 1
   8    4    5 ar
   9    4   26 1
  10    5    6 ar
  11    5   23 1
  12    6   27 1
  13    7    8 1
  14    7   23 1
  15    7   11 2
  16    8    9 1
  17    8   16 1
  18    9   10 2
  19    9   12 1
  20   10   11 1
  21   12   13 1
  22   13   14 1
  23   13   15 1
  24   13   28 1
  25   14   29 1
  26   14   30 1
  27   14   31 1
  28   15   32 1
  29   15   33 1
  30   15   34 1
  31   16   17 ar
  32   16   21 ar
  33   17   18 ar
  34   17   35 1
  35   18   19 ar
  36   18   36 1
  37   19   20 ar
  38   19   37 1
  39   20   21 ar
  40   20   38 1
  41   21   39 1
  42   23   40 1
  43   23   41 1

#	End of record

