#	Name: ASD01410966
#	Creating user name:	WinNT
#	Creation time:	15. 06. 2019 19:19

#	Modifying user name:	WinNT
#	Modification time:	15. 06. 2019 19:19

#	Program:	/corina/corina34_cracker 3.40 0067  02.08.2006

@<TRIPOS>MOLECULE
ASD01410966
  59   61    0    0    0
SMALL
NO_CHARGES


@<TRIPOS>ATOM
   1 C1             0.3688     1.8449    -0.3365 C.ar    
   2 P2             0.2253     0.0475    -0.5348 P.3     
   3 N3             0.1631    -0.6622     0.9423 N.pl3   
   4 O4            -1.0098    -0.2688    -1.2865 O.2     
   5 C5             0.1503    -2.0502     1.0476 C.2     
   6 C6             0.2073    -2.7070     2.2553 C.2     
   7 S7             0.1687    -4.4438     1.9845 S.3     
   8 C8             0.0768    -4.2105     0.2447 C.2     
   9 C9             0.0737    -2.8803    -0.0466 C.2     
  10 C10            0.2849    -2.0819     3.5188 C.2     
  11 O11            0.3058    -0.8670     3.5967 O.2     
  12 O12            0.3359    -2.8312     4.6408 O.3     
  13 C13            0.0074    -5.2976    -0.7542 C.ar    
  14 C14           -0.0932    -6.6263    -0.3381 C.ar    
  15 C15           -0.1576    -7.6364    -1.2750 C.ar    
  16 C16           -0.1222    -7.3347    -2.6261 C.ar    
  17 C17           -0.0221    -6.0185    -3.0450 C.ar    
  18 C18            0.0363    -4.9993    -2.1176 C.ar    
  19 O19            1.5024    -0.5069    -1.3433 O.3     
  20 C20            1.8319    -0.0789    -2.6663 C.3     
  21 Cl21          -0.2032    -8.6116    -3.7994 Cl      
  22 C22           -0.7615     2.6391    -0.3933 C.ar    
  23 C23           -0.6521     4.0086    -0.2422 C.ar    
  24 C24            0.5875     4.5843    -0.0339 C.ar    
  25 C25            1.7173     3.7903     0.0237 C.ar    
  26 C26            1.6074     2.4199    -0.1230 C.ar    
  27 C27            2.8386     1.5536    -0.0550 C.3     
  28 C28            0.7069     6.0776     0.1298 C.3     
  29 C29            3.0979    -0.7990    -3.1348 C.3     
  30 C30            3.4507    -0.3407    -4.5513 C.3     
  31 C31            3.8143     1.1453    -4.5309 C.3     
  32 C32            4.6420    -1.1502    -5.0674 C.3     
  33 H33            0.1352    -0.1148     1.7426 H       
  34 H34            0.0190    -2.5061    -1.0582 H       
  35 H35            0.3876    -2.3148     5.4567 H       
  36 H36           -0.1201    -6.8628     0.7154 H       
  37 H37           -0.2354    -8.6648    -0.9543 H       
  38 H38            0.0054    -5.7894    -4.1001 H       
  39 H39            0.1091    -3.9728    -2.4456 H       
  40 H40            1.0087    -0.3156    -3.3403 H       
  41 H41            2.0045     0.9974    -2.6675 H       
  42 H42           -1.7298     2.1894    -0.5560 H       
  43 H43           -1.5350     4.6291    -0.2872 H       
  44 H44            2.6857     4.2400     0.1860 H       
  45 H45            3.2047     1.3627    -1.0637 H       
  46 H46            3.6105     2.0639     0.5212 H       
  47 H47            2.5912     0.6078     0.4269 H       
  48 H48            0.6122     6.3362     1.1844 H       
  49 H49            1.6781     6.4071    -0.2393 H       
  50 H50           -0.0833     6.5696    -0.4373 H       
  51 H51            3.9211    -0.5622    -2.4607 H       
  52 H52            2.9253    -1.8752    -3.1335 H       
  53 H53            2.5942    -0.4962    -5.2073 H       
  54 H54            4.6708     1.3008    -3.8748 H       
  55 H55            4.0657     1.4718    -5.5400 H       
  56 H56            2.9656     1.7220    -4.1632 H       
  57 H57            4.3829    -2.2089    -5.0819 H       
  58 H58            4.8933    -0.8238    -6.0765 H       
  59 H59            5.4985    -0.9948    -4.4113 H       
@<TRIPOS>BOND
   1    1    2 1
   2    1   22 ar
   3    1   26 ar
   4    2    3 1
   5    2    4 2
   6    2   19 1
   7    3    5 1
   8    3   33 1
   9    5    6 2
  10    5    9 1
  11    6    7 1
  12    6   10 1
  13    7    8 1
  14    8    9 2
  15    8   13 1
  16    9   34 1
  17   10   11 2
  18   10   12 1
  19   12   35 1
  20   13   14 ar
  21   13   18 ar
  22   14   15 ar
  23   14   36 1
  24   15   16 ar
  25   15   37 1
  26   16   17 ar
  27   16   21 1
  28   17   18 ar
  29   17   38 1
  30   18   39 1
  31   19   20 1
  32   20   29 1
  33   20   40 1
  34   20   41 1
  35   22   23 ar
  36   22   42 1
  37   23   24 ar
  38   23   43 1
  39   24   25 ar
  40   24   28 1
  41   25   26 ar
  42   25   44 1
  43   26   27 1
  44   27   45 1
  45   27   46 1
  46   27   47 1
  47   28   48 1
  48   28   49 1
  49   28   50 1
  50   29   30 1
  51   29   51 1
  52   29   52 1
  53   30   31 1
  54   30   32 1
  55   30   53 1
  56   31   54 1
  57   31   55 1
  58   31   56 1
  59   32   57 1
  60   32   58 1
  61   32   59 1

#	End of record

