#	Name: ASD03091281
#	Creating user name:	WinNT
#	Creation time:	15. 06. 2019 20:30

#	Modifying user name:	WinNT
#	Modification time:	15. 06. 2019 20:30

#	Program:	/corina/corina34_cracker 3.40 0067  02.08.2006

@<TRIPOS>MOLECULE
ASD03091281
  58   63    0    0    0
SMALL
NO_CHARGES


@<TRIPOS>ATOM
   1 N1             0.0740     1.1952     0.5718 N.2     
   2 C2             0.0759    -0.0785     0.2760 C.2     
   3 N3             1.1634    -0.7214    -0.2512 N.am    
   4 C4             2.3091    -0.0427    -0.4931 C.2     
   5 C5             2.3297     1.3914    -0.1686 C.ar    
   6 C6             3.4610     2.1758    -0.3810 C.ar    
   7 C7             3.4247     3.5216    -0.0572 C.ar    
   8 C8             2.2672     4.0884     0.4769 C.ar    
   9 C9             1.1510     3.3323     0.6911 C.ar    
  10 C10            1.1594     1.9705     0.3732 C.ar    
  11 O11            3.2858    -0.5986    -0.9612 O.2     
  12 C12           -1.1535    -0.8609     0.5231 C.ar    
  13 C13           -1.8024    -0.7763     1.7561 C.ar    
  14 C14           -2.9494    -1.5092     1.9802 C.ar    
  15 C15           -3.4566    -2.3272     0.9862 C.ar    
  16 C16           -2.8184    -2.4156    -0.2383 C.ar    
  17 C17           -1.6740    -1.6832    -0.4776 C.ar    
  18 C18            1.0867    -2.1525    -0.5549 C.3     
  19 C19            1.4891    -2.4983    -1.9983 C.3     
  20 C20            2.2049    -3.7304    -1.4201 C.3     
  21 C21            2.3246    -2.9453    -0.1033 C.3     
  22 N22            6.8524     5.4442    -1.7560 N.3     
  23 C23            6.9725     4.3052    -0.8332 C.3     
  24 C24            5.6729     3.5172    -0.7803 C.3     
  25 N25            4.5547     4.3169    -0.2661 N.3     
  26 C26            4.2535     5.4313    -1.1757 C.3     
  27 C27            4.9829     6.6905    -0.7320 C.3     
  28 C28            6.4714     6.6544    -1.0136 C.3     
  29 C29            6.0434     5.2294    -2.9365 C.3     
  30 C30            4.5773     5.0139    -2.5985 C.3     
  31 H31            4.3580     1.7384    -0.7941 H       
  32 H32            2.2542     5.1396     0.7245 H       
  33 H33            0.2626     3.7852     1.1058 H       
  34 H34           -1.4071    -0.1387     2.5331 H       
  35 H35           -3.4524    -1.4447     2.9337 H       
  36 H36           -4.3545    -2.8994     1.1669 H       
  37 H37           -3.2193    -3.0562    -1.0098 H       
  38 H38           -1.1793    -1.7497    -1.4353 H       
  39 H39            0.1426    -2.6008    -0.2455 H       
  40 H40            0.6434    -2.7457    -2.6400 H       
  41 H41            2.1654    -1.7719    -2.4490 H       
  42 H42            1.5672    -4.6114    -1.3468 H       
  43 H43            3.1646    -3.9396    -1.8926 H       
  44 H44            3.2293    -2.3411    -0.0359 H       
  45 H45            2.1534    -3.5535     0.7848 H       
  46 H46            7.7755     3.6510    -1.1729 H       
  47 H47            7.2092     4.6748     0.1646 H       
  48 H48            5.4279     3.1725    -1.7849 H       
  49 H49            5.8122     2.6495    -0.1355 H       
  50 H50            3.1821     5.6258    -1.1272 H       
  51 H51            4.5499     7.5461    -1.2502 H       
  52 H52            4.8331     6.8220     0.3396 H       
  53 H53            7.0131     6.6771    -0.0680 H       
  54 H54            6.7441     7.5320    -1.5997 H       
  55 H55            6.1318     6.0984    -3.5886 H       
  56 H56            6.4166     4.3529    -3.4661 H       
  57 H57            4.3370     3.9578    -2.7213 H       
  58 H58            3.9656     5.5972    -3.2867 H       
@<TRIPOS>BOND
   1    1    2 2
   2    1   10 1
   3    2    3 1
   4    2   12 1
   5    3    4 am
   6    3   18 1
   7    4    5 1
   8    4   11 2
   9    5    6 ar
  10    5   10 ar
  11    6    7 ar
  12    6   31 1
  13    7    8 ar
  14    7   25 1
  15    8    9 ar
  16    8   32 1
  17    9   10 ar
  18    9   33 1
  19   12   13 ar
  20   12   17 ar
  21   13   14 ar
  22   13   34 1
  23   14   15 ar
  24   14   35 1
  25   15   16 ar
  26   15   36 1
  27   16   17 ar
  28   16   37 1
  29   17   38 1
  30   18   19 1
  31   18   21 1
  32   18   39 1
  33   19   20 1
  34   19   40 1
  35   19   41 1
  36   20   21 1
  37   20   42 1
  38   20   43 1
  39   21   44 1
  40   21   45 1
  41   22   23 1
  42   22   28 1
  43   22   29 1
  44   23   24 1
  45   23   46 1
  46   23   47 1
  47   24   25 1
  48   24   48 1
  49   24   49 1
  50   25   26 1
  51   26   27 1
  52   26   30 1
  53   26   50 1
  54   27   28 1
  55   27   51 1
  56   27   52 1
  57   28   53 1
  58   28   54 1
  59   29   30 1
  60   29   55 1
  61   29   56 1
  62   30   57 1
  63   30   58 1

#	End of record

