#	Name: ASD01708058
#	Creating user name:	WinNT
#	Creation time:	15. 06. 2019 19:22

#	Modifying user name:	WinNT
#	Modification time:	15. 06. 2019 19:22

#	Program:	/corina/corina34_cracker 3.40 0067  02.08.2006

@<TRIPOS>MOLECULE
ASD01708058
  68   71    0    0    0
SMALL
NO_CHARGES


@<TRIPOS>ATOM
   1 C1            -0.0005     0.5598     1.4025 C.2     
   2 O2             0.1384    -0.6403     1.2512 O.2     
   3 C3             1.6508     3.4745     0.1323 C.ar    
   4 C4             2.5551     2.7658    -0.6289 C.ar    
   5 C5             1.4256     4.8212    -0.1269 C.ar    
   6 C6             2.1048     5.4676    -1.1365 C.ar    
   7 C7             3.0306     4.7591    -1.9076 C.ar    
   8 C8             3.2493     3.4073    -1.6461 C.ar    
   9 Cl9            4.3974     2.5198    -2.5989 Cl      
  10 Cl10           1.8124     7.1500    -1.4491 Cl      
  11 C11            3.7709     5.4370    -2.9910 C.2     
  12 N12            3.2640     5.4634    -4.2395 N.am    
  13 O13            4.8375     5.9711    -2.7566 O.2     
  14 C14            3.9984     6.1358    -5.3141 C.3     
  15 C15            3.6684     7.6061    -5.3044 C.2     
  16 O16            4.2294     8.4259    -6.2072 O.3     
  17 O17            2.8987     8.0472    -4.4840 O.2     
  18 C18           -1.3054     1.1034     1.7804 C.2     
  19 C19            3.5971     5.5319    -6.6615 C.3     
  20 N20            3.8068     4.0824    -6.6288 N.pl3   
  21 C21            3.5157     3.3251    -7.7278 C.2     
  22 C22            2.8316     1.3006    -0.4155 C.3     
  23 C23            2.4037     0.8641     0.9846 C.3     
  24 N24            1.0490     1.3870     1.2274 N.am    
  25 C25            0.8872     2.8440     1.2705 C.3     
  26 O26           -1.5627     2.3897     2.1010 O.3     
  27 C27           -2.8685     2.5242     2.3932 C.2     
  28 C28           -3.4752     1.2896     2.2581 C.2     
  29 C29           -2.4834     0.3903     1.8640 C.2     
  30 N30           -3.4822     3.6703     2.7570 N.2     
  31 C31           -2.9270     4.4573     3.6441 C.2     
  32 C32           -1.6426     4.0950     4.2404 C.2     
  33 C33           -1.0764     4.8975     5.1450 C.2     
  34 N34            3.7995     1.9890    -7.7314 N.pl3   
  35 N35            2.9594     3.8853    -8.7877 N.2     
  36 C36            2.7975     5.2297    -8.8369 C.1     
  37 N37            2.6618     6.3568    -8.8783 N.1     
  38 C38            3.5402     1.0608    -8.8417 C.3     
  39 C39            4.4225     1.2400    -6.6249 C.3     
  40 C40            3.9721    -0.2271    -6.8360 C.3     
  41 C41            3.9987    -0.3400    -8.3846 C.3     
  42 H42            0.7097     5.3673     0.4696 H       
  43 H43            2.4130     5.0371    -4.4266 H       
  44 H44            5.0693     6.0027    -5.1609 H       
  45 H45            3.9871     9.3609    -6.1615 H       
  46 H46            2.5454     5.7426    -6.8552 H       
  47 H47            4.2069     5.9695    -7.4518 H       
  48 H48            4.1525     3.6603    -5.8267 H       
  49 H49            2.2809     0.7204    -1.1558 H       
  50 H50            3.8988     1.1157    -0.5381 H       
  51 H51            2.3953    -0.2242     1.0451 H       
  52 H52            3.0937     1.2700     1.7244 H       
  53 H53            1.2696     3.2234     2.2181 H       
  54 H54           -0.1699     3.0942     1.1806 H       
  55 H55           -4.5187     1.0646     2.4222 H       
  56 H56           -2.6121    -0.6640     1.6684 H       
  57 H57           -3.4180     5.3741     3.9352 H       
  58 H58           -1.1516     3.1782     3.9494 H       
  59 H59           -0.1274     4.6298     5.5856 H       
  60 H60           -1.5674     5.8144     5.4360 H       
  61 H61            2.4747     1.0456    -9.0710 H       
  62 H62            4.1064     1.3675    -9.7212 H       
  63 H63            5.5085     1.3151    -6.6801 H       
  64 H64            4.0639     1.6126    -5.6654 H       
  65 H65            4.6789    -0.9219    -6.3824 H       
  66 H66            2.9661    -0.3866    -6.4479 H       
  67 H67            3.3022    -1.1052    -8.7274 H       
  68 H68            5.0081    -0.5492    -8.7387 H       
@<TRIPOS>BOND
   1    1    2 2
   2    1   24 am
   3    1   18 1
   4    3    4 ar
   5    3    5 ar
   6    3   25 1
   7    4   22 1
   8    4    8 ar
   9    5    6 ar
  10    5   42 1
  11    6    7 ar
  12    6   10 1
  13    7    8 ar
  14    7   11 1
  15    8    9 1
  16   11   12 am
  17   11   13 2
  18   12   14 1
  19   12   43 1
  20   14   15 1
  21   14   19 1
  22   14   44 1
  23   15   16 1
  24   15   17 2
  25   16   45 1
  26   18   26 1
  27   18   29 2
  28   19   20 1
  29   19   46 1
  30   19   47 1
  31   20   21 1
  32   20   48 1
  33   21   35 2
  34   21   34 1
  35   22   23 1
  36   22   49 1
  37   22   50 1
  38   23   24 1
  39   23   51 1
  40   23   52 1
  41   24   25 1
  42   25   53 1
  43   25   54 1
  44   26   27 1
  45   27   28 2
  46   27   30 1
  47   28   29 1
  48   28   55 1
  49   29   56 1
  50   30   31 2
  51   31   32 1
  52   31   57 1
  53   32   33 2
  54   32   58 1
  55   33   59 1
  56   33   60 1
  57   34   38 1
  58   34   39 1
  59   35   36 1
  60   36   37 3
  61   38   41 1
  62   38   61 1
  63   38   62 1
  64   39   40 1
  65   39   63 1
  66   39   64 1
  67   40   41 1
  68   40   65 1
  69   40   66 1
  70   41   67 1
  71   41   68 1

#	End of record

