#	Name: ASD08390025
#	Creating user name:	WinNT
#	Creation time:	15. 06. 2019 21:19

#	Modifying user name:	WinNT
#	Modification time:	15. 06. 2019 21:19

#	Program:	/corina/corina34_cracker 3.40 0067  02.08.2006

@<TRIPOS>MOLECULE
ASD08390025
  47   50    0    0    0
SMALL
NO_CHARGES


@<TRIPOS>ATOM
   1 N1             0.0163     1.4984    -0.1315 N.2     
   2 C2            -0.0305     0.0707     0.2125 C.3     
   3 C3             1.4502    -0.3575     0.2379 C.3     
   4 N4             2.1674     0.8842    -0.0966 N.pl3   
   5 C5             1.2416     1.8788    -0.2863 C.2     
   6 C6             3.5554     1.0257    -0.2027 C.ar    
   7 C7             1.8397    -0.8432     1.6102 C.ar    
   8 C8             1.6141     3.2680    -0.6386 C.ar    
   9 C9             2.8655     3.5384    -1.1918 C.ar    
  10 C10            3.2069     4.8350    -1.5179 C.ar    
  11 C11            2.3109     5.8656    -1.2967 C.ar    
  12 C12            1.0684     5.6037    -0.7479 C.ar    
  13 C13            0.7129     4.3104    -0.4238 C.ar    
  14 C14           -0.6697    -0.1286     1.5882 C.3     
  15 C15            1.8995    -2.1992     1.8724 C.ar    
  16 C16            2.1428     0.0671     2.6054 C.ar    
  17 C17            2.5001    -0.3784     3.8643 C.ar    
  18 C18            2.5539    -1.7343     4.1281 C.ar    
  19 C19            2.2567    -2.6447     3.1313 C.ar    
  20 C20            4.2377     0.4224    -1.2511 C.ar    
  21 C21            5.6078     0.5632    -1.3539 C.ar    
  22 C22            6.3011     1.3053    -0.4126 C.ar    
  23 C23            5.6227     1.9077     0.6336 C.ar    
  24 C24            4.2520     1.7742     0.7370 C.ar    
  25 F25            7.6413     1.4415    -0.5148 F       
  26 C26           -0.7854    -0.7013    -0.8388 C.2     
  27 O27           -0.4294    -1.8152    -1.1425 O.2     
  28 O28           -1.8534    -0.1514    -1.4377 O.3     
  29 H29            1.6412    -1.1256    -0.5116 H       
  30 H30            3.5660     2.7347    -1.3642 H       
  31 H31            4.1756     5.0457    -1.9464 H       
  32 H32            2.5828     6.8789    -1.5533 H       
  33 H33            0.3733     6.4125    -0.5772 H       
  34 H34           -0.2593     4.1065     0.0002 H       
  35 H35           -1.6943     0.2430     1.5700 H       
  36 H36           -0.6724    -1.1897     1.8374 H       
  37 H37           -0.0979     0.4191     2.3373 H       
  38 H38            1.6667    -2.9105     1.0938 H       
  39 H39            2.1007     1.1264     2.3992 H       
  40 H40            2.7375     0.3328     4.6415 H       
  41 H41            2.8334    -2.0823     5.1115 H       
  42 H42            2.2988    -3.7040     3.3374 H       
  43 H43            3.6974    -0.1568    -1.9853 H       
  44 H44            6.1388     0.0940    -2.1689 H       
  45 H45            6.1654     2.4860     1.3667 H       
  46 H46            3.7232     2.2445     1.5529 H       
  47 H47           -2.3053    -0.6849    -2.1057 H       
@<TRIPOS>BOND
   1    1    2 1
   2    1    5 2
   3    2    3 1
   4    2   14 1
   5    2   26 1
   6    3    4 1
   7    3    7 1
   8    3   29 1
   9    4    5 1
  10    4    6 1
  11    5    8 1
  12    6   20 ar
  13    6   24 ar
  14    7   15 ar
  15    7   16 ar
  16    8    9 ar
  17    8   13 ar
  18    9   10 ar
  19    9   30 1
  20   10   11 ar
  21   10   31 1
  22   11   12 ar
  23   11   32 1
  24   12   13 ar
  25   12   33 1
  26   13   34 1
  27   14   35 1
  28   14   36 1
  29   14   37 1
  30   15   19 ar
  31   15   38 1
  32   16   17 ar
  33   16   39 1
  34   17   18 ar
  35   17   40 1
  36   18   19 ar
  37   18   41 1
  38   19   42 1
  39   20   21 ar
  40   20   43 1
  41   21   22 ar
  42   21   44 1
  43   22   23 ar
  44   22   25 1
  45   23   24 ar
  46   23   45 1
  47   24   46 1
  48   26   27 2
  49   26   28 1
  50   28   47 1

#	End of record

