#	Name: ASD01208422
#	Creating user name:	WinNT
#	Creation time:	15. 06. 2019 19:09

#	Modifying user name:	WinNT
#	Modification time:	15. 06. 2019 19:09

#	Program:	/corina/corina34_cracker 3.40 0067  02.08.2006

@<TRIPOS>MOLECULE
ASD01208422
  49   50    0    0    0
SMALL
NO_CHARGES


@<TRIPOS>ATOM
   1 S1            -2.8543     1.9030     0.0957 S.3     
   2 C2            -2.0328     0.3504    -0.0394 C.2     
   3 N3            -1.0566     0.3089     0.8250 N.2     
   4 C4            -0.8861     1.3688     1.5824 C.2     
   5 C5            -1.7406     2.3757     1.3773 C.2     
   6 N6            -1.6828    -1.8847    -1.1865 N.pl3   
   7 C7            -2.3909    -0.7270    -0.9762 C.2     
   8 C8            -3.4862    -0.7534    -1.7910 C.2     
   9 C9            -3.4410    -1.9558    -2.5124 C.2     
  10 C10           -2.3333    -2.6267    -2.1260 C.2     
  11 Si11          -0.1141    -2.3520    -0.3460 Si      
  12 C12           -0.4772    -2.8576     1.4099 C.3     
  13 C13           -1.7609    -3.6893     1.4461 C.3     
  14 C14            0.6860    -3.6911     1.9515 C.3     
  15 C15            0.6753    -3.7758    -1.2517 C.3     
  16 C16           -0.1919    -5.0260    -1.0912 C.3     
  17 C17            0.8007    -3.4292    -2.7366 C.3     
  18 C18            1.0477    -0.8957    -0.3454 C.3     
  19 C19            2.4590    -1.3693     0.0081 C.3     
  20 C20            1.0586    -0.2513    -1.7330 C.3     
  21 C21           -1.7503     3.6896     2.1152 C.3     
  22 H22           -0.1039     1.4229     2.3251 H       
  23 H23           -4.2468     0.0096    -1.8659 H       
  24 H24           -4.1626    -2.2863    -3.2449 H       
  25 H25           -2.0165    -3.5892    -2.4998 H       
  26 H26           -0.6037    -1.9671     2.0256 H       
  27 H27           -1.6036    -4.6239     0.9076 H       
  28 H28           -2.0241    -3.9063     2.4813 H       
  29 H29           -2.5694    -3.1302     0.9752 H       
  30 H30            1.5795    -3.0700     2.0148 H       
  31 H31            0.4333    -4.0663     2.9432 H       
  32 H32            0.8738    -4.5307     1.2823 H       
  33 H33            1.6658    -3.9652    -0.8379 H       
  34 H34           -1.2207    -4.7921    -1.3649 H       
  35 H35            0.1860    -5.8161    -1.7401 H       
  36 H36           -0.1589    -5.3606    -0.0544 H       
  37 H37            1.5208    -2.6205    -2.8614 H       
  38 H38            1.1404    -4.3065    -3.2871 H       
  39 H39           -0.1700    -3.1135    -3.1192 H       
  40 H40            0.7143    -0.1653     0.3918 H       
  41 H41            2.4412    -1.8761     0.9729 H       
  42 H42            2.8133    -2.0590    -0.7581 H       
  43 H43            3.1279    -0.5103     0.0611 H       
  44 H44            0.0466     0.0530    -2.0002 H       
  45 H45            1.7100     0.6226    -1.7227 H       
  46 H46            1.4269    -0.9704    -2.4647 H       
  47 H47           -2.3900     3.6081     2.9940 H       
  48 H48           -0.7358     3.9391     2.4263 H       
  49 H49           -2.1319     4.4720     1.4592 H       
@<TRIPOS>BOND
   1    1    2 1
   2    1    5 1
   3    2    3 2
   4    2    7 1
   5    3    4 1
   6    4    5 2
   7    4   22 1
   8    5   21 1
   9    6    7 1
  10    6   10 1
  11    6   11 1
  12    7    8 2
  13    8    9 1
  14    8   23 1
  15    9   10 2
  16    9   24 1
  17   10   25 1
  18   11   12 1
  19   11   15 1
  20   11   18 1
  21   12   13 1
  22   12   14 1
  23   12   26 1
  24   13   27 1
  25   13   28 1
  26   13   29 1
  27   14   30 1
  28   14   31 1
  29   14   32 1
  30   15   16 1
  31   15   17 1
  32   15   33 1
  33   16   34 1
  34   16   35 1
  35   16   36 1
  36   17   37 1
  37   17   38 1
  38   17   39 1
  39   18   19 1
  40   18   20 1
  41   18   40 1
  42   19   41 1
  43   19   42 1
  44   19   43 1
  45   20   44 1
  46   20   45 1
  47   20   46 1
  48   21   47 1
  49   21   48 1
  50   21   49 1

#	End of record

