#	Name: ASD03740263
#	Creating user name:	WinNT
#	Creation time:	15. 06. 2019 20:47

#	Modifying user name:	WinNT
#	Modification time:	15. 06. 2019 20:47

#	Program:	/corina/corina34_cracker 3.40 0067  02.08.2006

@<TRIPOS>MOLECULE
ASD03740263
  59   61    0    0    0
SMALL
NO_CHARGES


@<TRIPOS>ATOM
   1 S1             2.7163     2.7639    -4.1265 S.o2    
   2 O2             2.7558     1.4259    -4.6036 O.2     
   3 O3             3.6462     3.7341    -4.5883 O.2     
   4 N4             1.2461     3.3344    -4.6319 N.am    
   5 C5             0.8657     4.6433    -4.3338 C.ar    
   6 C6             1.4213     5.7050    -5.0400 C.ar    
   7 C7             1.0480     6.9985    -4.7490 C.ar    
   8 C8             0.1095     7.2436    -3.7421 C.ar    
   9 C9            -0.4467     6.1738    -3.0345 C.ar    
  10 C10           -0.0722     4.8827    -3.3350 C.ar    
  11 C11           -0.2921     8.6256    -3.4274 C.2     
  12 C12           -1.1940     8.8591    -2.4597 C.2     
  13 C13           -1.5956    10.2411    -2.1450 C.ar    
  14 C14           -2.3691    10.5073    -1.0053 C.ar    
  15 C15           -2.7450    11.8088    -0.7115 C.ar    
  16 C16           -2.3612    12.8460    -1.5363 C.ar    
  17 C17           -1.5911    12.5926    -2.6735 C.ar    
  18 C18           -1.2033    11.2904    -2.9757 C.ar    
  19 C19           -1.1827    13.7104    -3.5554 C.2     
  20 C20           -1.6530    13.8042    -4.8947 C.2     
  21 O21           -2.4081    12.9588    -5.3455 O.2     
  22 N22           -1.2534    14.8394    -5.6580 N.am    
  23 N23           -0.4601    15.7436    -5.2121 N.2     
  24 C24            0.0165    15.7323    -3.9977 C.2     
  25 C25           -0.3309    14.7096    -3.1047 C.2     
  26 C26           -3.5764    12.0919     0.5131 C.3     
  27 C27           -3.9202    13.5819     0.5629 C.3     
  28 C28           -4.8670    11.2723     0.4539 C.3     
  29 C29           -2.7859    11.7088     1.7658 C.3     
  30 O30           -2.7500     9.4902    -0.1902 O.3     
  31 C31           -1.7605     8.9641     0.6965 C.3     
  32 C32            2.6143     2.7912    -2.3156 C.3     
  33 H33            0.6493     2.7586    -5.1351 H       
  34 H34            2.1465     5.5148    -5.8174 H       
  35 H35            1.4801     7.8224    -5.2976 H       
  36 H36           -1.1720     6.3591    -2.2560 H       
  37 H37           -0.5044     4.0554    -2.7916 H       
  38 H38            0.1386     9.4510    -3.9747 H       
  39 H39           -1.6247     8.0337    -1.9124 H       
  40 H40           -2.6578    13.8576    -1.3019 H       
  41 H41           -0.6040    11.0929    -3.8522 H       
  42 H42           -1.5743    14.9029    -6.5712 H       
  43 H43            0.6812    16.5205    -3.6762 H       
  44 H44            0.0564    14.6968    -2.0966 H       
  45 H45           -4.4834    13.8548    -0.3296 H       
  46 H46           -4.5216    13.7866     1.4486 H       
  47 H47           -3.0008    14.1658     0.6050 H       
  48 H48           -4.6220    10.2108     0.4185 H       
  49 H49           -5.4683    11.4770     1.3397 H       
  50 H50           -5.4301    11.5452    -0.4385 H       
  51 H51           -1.7643    12.0785     1.6780 H       
  52 H52           -3.2583    12.1511     2.6429 H       
  53 H53           -2.7720    10.6237     1.8690 H       
  54 H54           -0.9994     8.4378     0.1205 H       
  55 H55           -1.2972     9.7810     1.2497 H       
  56 H56           -2.2302     8.2722     1.3957 H       
  57 H57            3.5135     2.3419    -1.8942 H       
  58 H58            2.5280     3.8221    -1.9721 H       
  59 H59            1.7400     2.2262    -1.9924 H       
@<TRIPOS>BOND
   1    1    2 2
   2    1    3 2
   3    1    4 am
   4    1   32 1
   5    4    5 1
   6    4   33 1
   7    5    6 ar
   8    5   10 ar
   9    6    7 ar
  10    6   34 1
  11    7    8 ar
  12    7   35 1
  13    8    9 ar
  14    8   11 1
  15    9   10 ar
  16    9   36 1
  17   10   37 1
  18   11   12 2
  19   11   38 1
  20   12   13 1
  21   12   39 1
  22   13   14 ar
  23   13   18 ar
  24   14   15 ar
  25   14   30 1
  26   15   16 ar
  27   15   26 1
  28   16   17 ar
  29   16   40 1
  30   17   18 ar
  31   17   19 1
  32   18   41 1
  33   19   20 1
  34   19   25 2
  35   20   21 2
  36   20   22 am
  37   22   23 1
  38   22   42 1
  39   23   24 2
  40   24   25 1
  41   24   43 1
  42   25   44 1
  43   26   27 1
  44   26   28 1
  45   26   29 1
  46   27   45 1
  47   27   46 1
  48   27   47 1
  49   28   48 1
  50   28   49 1
  51   28   50 1
  52   29   51 1
  53   29   52 1
  54   29   53 1
  55   30   31 1
  56   31   54 1
  57   31   55 1
  58   31   56 1
  59   32   57 1
  60   32   58 1
  61   32   59 1

#	End of record

