#	Name: ASD01410164
#	Creating user name:	WinNT
#	Creation time:	15. 06. 2019 19:16

#	Modifying user name:	WinNT
#	Modification time:	15. 06. 2019 19:16

#	Program:	/corina/corina34_cracker 3.40 0067  02.08.2006

@<TRIPOS>MOLECULE
ASD01410164
  45   48    0    0    0
SMALL
NO_CHARGES


@<TRIPOS>ATOM
   1 C1            -0.0187     1.5258     0.0104 C.3     
   2 C2             0.0021    -0.0041     0.0020 C.3     
   3 C3             0.7182    -0.4975    -1.2568 C.3     
   4 C4             2.1536     0.0321    -1.2676 C.3     
   5 C5             2.1328     1.5619    -1.2592 C.3     
   6 C6             1.4167     2.0553    -0.0004 C.3     
   7 C7             3.9322     4.5081     2.5125 C.ar    
   8 C8             2.6877     3.9621     2.2055 C.ar    
   9 C9             2.1274     3.0022     3.0455 C.ar    
  10 C10            2.8071     2.5972     4.1765 C.ar    
  11 C11            4.0421     3.1429     4.4767 C.ar    
  12 C12            4.6030     4.0962     3.6462 C.ar    
  13 C13            0.8203     4.3806    -0.9440 C.2     
  14 N14            1.0258     5.6888    -0.5588 N.pl3   
  15 C15            0.5575     6.7194    -1.3222 C.2     
  16 C16           -0.1222     6.4755    -2.4790 C.2     
  17 C17           -0.3511     5.0928    -2.9059 C.2     
  18 C18            0.1250     4.0824    -2.1396 C.2     
  19 C19            1.3963     3.5622     0.0079 C.2     
  20 C20            1.9612     4.4019     0.9881 C.2     
  21 C21            1.7200     5.6916     0.6166 C.2     
  22 C22           -0.6238     7.5956    -3.2943 C.2     
  23 O23           -0.4322     8.7411    -2.9364 O.2     
  24 O24           -1.2950     7.3498    -4.4368 O.3     
  25 H25           -0.5459     1.8868    -0.8726 H       
  26 H26           -0.5289     1.8773     0.9072 H       
  27 H27            0.5293    -0.3651     0.8851 H       
  28 H28           -1.0205    -0.3814     0.0098 H       
  29 H29            0.7330    -1.5874    -1.2628 H       
  30 H30            0.1910    -0.1364    -2.1398 H       
  31 H31            2.6808    -0.3290    -0.3846 H       
  32 H32            2.6638    -0.3194    -2.1644 H       
  33 H33            3.1554     1.9392    -1.2670 H       
  34 H34            1.6057     1.9230    -2.1423 H       
  35 H35            1.9439     1.6943     0.8826 H       
  36 H36            4.3730     5.2493     1.8623 H       
  37 H37            1.1628     2.5760     2.8123 H       
  38 H38            2.3737     1.8532     4.8283 H       
  39 H39            4.5702     2.8237     5.3631 H       
  40 H40            5.5677     4.5188     3.8851 H       
  41 H41            0.7269     7.7383    -1.0064 H       
  42 H42           -0.8879     4.8825    -3.8192 H       
  43 H43           -0.0321     3.0556    -2.4352 H       
  44 H44            2.0284     6.5711     1.1623 H       
  45 H45           -1.6046     8.1168    -4.9377 H       
@<TRIPOS>BOND
   1    1    2 1
   2    1    6 1
   3    1   25 1
   4    1   26 1
   5    2    3 1
   6    2   27 1
   7    2   28 1
   8    3    4 1
   9    3   29 1
  10    3   30 1
  11    4    5 1
  12    4   31 1
  13    4   32 1
  14    5    6 1
  15    5   33 1
  16    5   34 1
  17    6   19 1
  18    6   35 1
  19    7    8 ar
  20    7   12 ar
  21    7   36 1
  22    8    9 ar
  23    8   20 1
  24    9   10 ar
  25    9   37 1
  26   10   11 ar
  27   10   38 1
  28   11   12 ar
  29   11   39 1
  30   12   40 1
  31   13   19 2
  32   13   14 1
  33   13   18 1
  34   14   15 1
  35   14   21 1
  36   15   16 2
  37   15   41 1
  38   16   17 1
  39   16   22 1
  40   17   18 2
  41   17   42 1
  42   18   43 1
  43   19   20 1
  44   20   21 2
  45   21   44 1
  46   22   23 2
  47   22   24 1
  48   24   45 1

#	End of record

