#	Name: ASD03731777
#	Creating user name:	WinNT
#	Creation time:	15. 06. 2019 20:46

#	Modifying user name:	WinNT
#	Modification time:	15. 06. 2019 20:46

#	Program:	/corina/corina34_cracker 3.40 0067  02.08.2006

@<TRIPOS>MOLECULE
ASD03731777
  36   37    0    0    0
SMALL
NO_CHARGES


@<TRIPOS>ATOM
   1 C1             0.3766     1.0948     1.9771 C.2     
   2 C2             0.2926    -0.2816     1.4509 C.ar    
   3 C3             1.3749    -0.8355     0.7617 C.ar    
   4 C4             1.2929    -2.1199     0.2728 C.ar    
   5 C5             0.1353    -2.8659     0.4640 C.ar    
   6 C6            -0.9433    -2.3186     1.1490 C.ar    
   7 C7            -0.8670    -1.0364     1.6457 C.ar    
   8 O8             1.3883     1.7484     1.8112 O.2     
   9 N9            -0.6702     1.6292     2.6367 N.am    
  10 S10           -0.5760     3.1735     3.2271 S.o2    
  11 O11           -1.8268     3.3802     3.8689 O.2     
  12 O12            0.6382     3.1931     3.9651 O.2     
  13 C13           -0.4392     4.2157     1.7487 C.3     
  14 C14            2.4592    -2.7178    -0.4710 C.3     
  15 O15            0.0581    -4.1313    -0.0197 O.3     
  16 C16           -1.1273    -4.7860     0.0927 C.ar    
  17 C17           -2.0820    -4.6715    -0.9077 C.ar    
  18 C18           -3.2868    -5.3390    -0.7910 C.ar    
  19 C19           -3.5408    -6.1204     0.3229 C.ar    
  20 C20           -2.5907    -6.2354     1.3203 C.ar    
  21 C21           -1.3827    -5.5746     1.2053 C.ar    
  22 Cl22          -4.4821    -5.1968    -2.0419 Cl      
  23 H23            2.2743    -0.2565     0.6124 H       
  24 H24           -1.8408    -2.9011     1.2956 H       
  25 H25           -1.7039    -0.6133     2.1814 H       
  26 H26           -1.4789     1.1092     2.7657 H       
  27 H27           -1.3188     4.0730     1.1209 H       
  28 H28           -0.3714     5.2620     2.0467 H       
  29 H29            0.4547     3.9383     1.1901 H       
  30 H30            3.1194    -3.2228     0.2341 H       
  31 H31            2.0927    -3.4364    -1.2041 H       
  32 H32            3.0090    -1.9268    -0.9810 H       
  33 H33           -1.8840    -4.0613    -1.7765 H       
  34 H34           -4.4828    -6.6407     0.4130 H       
  35 H35           -2.7914    -6.8454     2.1886 H       
  36 H36           -0.6395    -5.6684     1.9832 H       
@<TRIPOS>BOND
   1    1    2 1
   2    1    8 2
   3    1    9 am
   4    2    3 ar
   5    2    7 ar
   6    3    4 ar
   7    3   23 1
   8    4    5 ar
   9    4   14 1
  10    5    6 ar
  11    5   15 1
  12    6    7 ar
  13    6   24 1
  14    7   25 1
  15    9   10 am
  16    9   26 1
  17   10   11 2
  18   10   12 2
  19   10   13 1
  20   13   27 1
  21   13   28 1
  22   13   29 1
  23   14   30 1
  24   14   31 1
  25   14   32 1
  26   15   16 1
  27   16   17 ar
  28   16   21 ar
  29   17   18 ar
  30   17   33 1
  31   18   19 ar
  32   18   22 1
  33   19   20 ar
  34   19   34 1
  35   20   21 ar
  36   20   35 1
  37   21   36 1

#	End of record

