#	Name: ASD03950040
#	Creating user name:	WinNT
#	Creation time:	15. 06. 2019 20:48

#	Modifying user name:	WinNT
#	Modification time:	15. 06. 2019 20:48

#	Program:	/corina/corina34_cracker 3.40 0067  02.08.2006

@<TRIPOS>MOLECULE
ASD03950040
  70   73    0    0    0
SMALL
NO_CHARGES


@<TRIPOS>ATOM
   1 N1             1.8462    -0.2143     0.2575 N.pl3   
   2 N2             1.5068    -1.5709     0.2562 N.2     
   3 C3             2.5825    -2.3006     0.3343 C.2     
   4 C4             3.7284    -1.3963     0.3926 C.ar    
   5 C5             5.1092    -1.5906     0.4818 C.ar    
   6 C6             5.9610    -0.4956     0.5189 C.ar    
   7 C7             5.4474     0.8014     0.4681 C.ar    
   8 C8             4.0770     1.0115     0.3798 C.ar    
   9 C9             3.2035    -0.0912     0.3405 C.ar    
  10 C10            3.5397     2.3844     0.3274 C.2     
  11 O11            2.3398     2.5652     0.2501 O.2     
  12 N12            4.3789     3.4383     0.3652 N.am    
  13 C13            7.4273    -0.7049     0.6137 C.ar    
  14 C14            8.2884     0.3896     0.6514 C.ar    
  15 C15            9.6532     0.1886     0.7396 C.ar    
  16 C16           10.1635    -1.0986     0.7900 C.ar    
  17 C17            9.3115    -2.1869     0.7528 C.ar    
  18 C18            7.9466    -1.9963     0.6710 C.ar    
  19 F19           10.4903     1.2483     0.7763 F       
  20 N20            1.4799    -6.3877     0.3243 N.am    
  21 C21            1.9409    -5.8527     1.6127 C.3     
  22 C22            1.8556    -4.3237     1.5706 C.3     
  23 C23            2.6357    -3.8064     0.3598 C.3     
  24 C24            2.0142    -4.3604    -0.9243 C.3     
  25 C25            2.1013    -5.8898    -0.9104 C.3     
  26 S26            0.2873    -7.5351     0.2654 S.o2    
  27 O27            0.5295    -8.2302    -0.9501 O.2     
  28 O28            0.3768    -8.1983     1.5190 O.2     
  29 C29           -1.2526    -6.5824     0.1578 C.3     
  30 C30           -2.4428    -7.5419     0.0966 C.3     
  31 C31           -3.7416    -6.7383     0.0059 C.3     
  32 N32           -4.8843    -7.6596    -0.0529 N.3     
  33 C33           -5.0230    -8.4072     1.2040 C.3     
  34 C34           -5.9352    -9.6150     0.9810 C.3     
  35 C35           -6.1237    -6.9409    -0.3775 C.3     
  36 C36           -6.1451    -6.6100    -1.8711 C.3     
  37 H37            1.2174     0.5224     0.2036 H       
  38 H38            5.5130    -2.5914     0.5222 H       
  39 H39            6.1193     1.6465     0.4980 H       
  40 H40            5.3362     3.2941     0.4268 H       
  41 H41            4.0257     4.3411     0.3307 H       
  42 H42            7.8906     1.3928     0.6113 H       
  43 H43           11.2303    -1.2524     0.8583 H       
  44 H44            9.7143    -3.1882     0.7924 H       
  45 H45            7.2824    -2.8476     0.6470 H       
  46 H46            1.3067    -6.2321     2.4139 H       
  47 H47            2.9733    -6.1564     1.7861 H       
  48 H48            0.8121    -4.0197     1.4880 H       
  49 H49            2.2844    -3.9101     2.4834 H       
  50 H50            3.6736    -4.1319     0.4304 H       
  51 H51            0.9692    -4.0560    -0.9834 H       
  52 H52            2.5558    -3.9730    -1.7872 H       
  53 H53            3.1467    -6.1965    -0.9428 H       
  54 H54            1.5729    -6.2937    -1.7740 H       
  55 H55           -1.3463    -5.9428     1.0355 H       
  56 H56           -1.2364    -5.9658    -0.7409 H       
  57 H57           -2.3491    -8.1814    -0.7811 H       
  58 H58           -2.4590    -8.1584     0.9954 H       
  59 H59           -3.8352    -6.0988     0.8836 H       
  60 H60           -3.7253    -6.1218    -0.8929 H       
  61 H61           -4.0418    -8.7488     1.5337 H       
  62 H62           -5.4572    -7.7597     1.9659 H       
  63 H63           -5.5737   -10.1910     0.1291 H       
  64 H64           -5.9312   -10.2428     1.8721 H       
  65 H65           -6.9506    -9.2718     0.7830 H       
  66 H66           -6.9816    -7.5668    -0.1317 H       
  67 H67           -6.1702    -6.0176     0.2000 H       
  68 H68           -5.2832    -5.9902    -2.1183 H       
  69 H69           -6.1061    -7.5336    -2.4485 H       
  70 H70           -7.0613    -6.0702    -2.1105 H       
@<TRIPOS>BOND
   1    1    2 1
   2    1    9 1
   3    1   37 1
   4    2    3 2
   5    3    4 1
   6    3   23 1
   7    4    5 ar
   8    4    9 ar
   9    5    6 ar
  10    5   38 1
  11    6    7 ar
  12    6   13 1
  13    7    8 ar
  14    7   39 1
  15    8    9 ar
  16    8   10 1
  17   10   11 2
  18   10   12 am
  19   12   40 1
  20   12   41 1
  21   13   14 ar
  22   13   18 ar
  23   14   15 ar
  24   14   42 1
  25   15   16 ar
  26   15   19 1
  27   16   17 ar
  28   16   43 1
  29   17   18 ar
  30   17   44 1
  31   18   45 1
  32   20   21 1
  33   20   25 1
  34   20   26 am
  35   21   22 1
  36   21   46 1
  37   21   47 1
  38   22   23 1
  39   22   48 1
  40   22   49 1
  41   23   24 1
  42   23   50 1
  43   24   25 1
  44   24   51 1
  45   24   52 1
  46   25   53 1
  47   25   54 1
  48   26   27 2
  49   26   28 2
  50   26   29 1
  51   29   30 1
  52   29   55 1
  53   29   56 1
  54   30   31 1
  55   30   57 1
  56   30   58 1
  57   31   32 1
  58   31   59 1
  59   31   60 1
  60   32   33 1
  61   32   35 1
  62   33   34 1
  63   33   61 1
  64   33   62 1
  65   34   63 1
  66   34   64 1
  67   34   65 1
  68   35   36 1
  69   35   66 1
  70   35   67 1
  71   36   68 1
  72   36   69 1
  73   36   70 1

#	End of record

