#	Name: ASD00890006
#	Creating user name:	WinNT
#	Creation time:	15. 06. 2019 18:53

#	Modifying user name:	WinNT
#	Modification time:	15. 06. 2019 18:53

#	Program:	/corina/corina34_cracker 3.40 0067  02.08.2006

@<TRIPOS>MOLECULE
ASD00890006
  54   57    0    0    0
SMALL
NO_CHARGES


@<TRIPOS>ATOM
   1 C1             0.2256     1.2000    -0.1971 C.ar    
   2 C2             0.3348    -0.1744    -0.3111 C.ar    
   3 C3             1.5787    -0.7647    -0.4053 C.ar    
   4 C4             2.7256     0.0261    -0.3859 C.ar    
   5 C5             2.6099     1.4093    -0.2714 C.ar    
   6 C6             1.3608     1.9896    -0.1773 C.ar    
   7 S7             1.2125     3.7394    -0.0330 S.o2    
   8 O8            -0.0447     3.9862     0.5815 O.2     
   9 O9             2.4440     4.2036     0.5028 O.2     
  10 N10            1.1105     4.3510    -1.5686 N.am    
  11 C11            4.0664    -0.6036    -0.4864 C.2     
  12 C12            4.3237    -1.9385    -0.6019 C.2     
  13 N13            5.6617    -2.0921    -0.6646 N.pl3   
  14 N14            6.2518    -0.8248    -0.5864 N.2     
  15 C15            5.3039     0.0690    -0.4859 C.2     
  16 C16            6.3750    -3.3653    -0.7920 C.3     
  17 C17            7.2870    -3.3125    -1.9905 C.ar    
  18 C18            8.5868    -2.8633    -1.8508 C.ar    
  19 C19            9.4233    -2.8148    -2.9502 C.ar    
  20 C20            8.9601    -3.2158    -4.1894 C.ar    
  21 C21            7.6606    -3.6659    -4.3290 C.ar    
  22 C22            6.8254    -3.7185    -3.2287 C.ar    
  23 C23            0.0678     3.9666    -2.4011 C.ar    
  24 C24            0.2874     3.8023    -3.7803 C.ar    
  25 C25           -0.7709     3.4143    -4.6089 C.ar    
  26 C26           -2.0105     3.1966    -4.0798 C.ar    
  27 C27           -2.2329     3.3584    -2.7151 C.ar    
  28 C28           -1.1954     3.7368    -1.8769 C.ar    
  29 C29            1.6229     4.0377    -4.3490 C.2     
  30 O30            1.8298     3.8792    -5.6716 O.3     
  31 O31            2.5403     4.3751    -3.6265 O.2     
  32 O32           -3.4701     3.1396    -2.2020 O.3     
  33 C33           -4.4928     2.7467    -3.1195 C.3     
  34 H34           -0.7499     1.6583    -0.1278 H       
  35 H35           -0.5549    -0.7865    -0.3260 H       
  36 H36            1.6629    -1.8378    -0.4935 H       
  37 H37            3.4958     2.0268    -0.2555 H       
  38 H38            1.7792     4.9777    -1.8864 H       
  39 H39            3.5886    -2.7289    -0.6368 H       
  40 H40            5.4451     1.1370    -0.4082 H       
  41 H41            6.9660    -3.5422     0.1067 H       
  42 H42            5.6552    -4.1740    -0.9185 H       
  43 H43            8.9487    -2.5500    -0.8826 H       
  44 H44           10.4387    -2.4632    -2.8411 H       
  45 H45            9.6135    -3.1773    -5.0485 H       
  46 H46            7.2986    -3.9789    -5.2972 H       
  47 H47            5.8100    -4.0701    -3.3378 H       
  48 H48           -0.6072     3.2872    -5.6688 H       
  49 H49           -2.8238     2.8972    -4.7241 H       
  50 H50           -1.3727     3.8611    -0.8188 H       
  51 H51            2.7244     4.0453    -5.9990 H       
  52 H52           -4.2072     1.8128    -3.6037 H       
  53 H53           -5.4295     2.6048    -2.5804 H       
  54 H54           -4.6217     3.5227    -3.8740 H       
@<TRIPOS>BOND
   1    1    2 ar
   2    1    6 ar
   3    1   34 1
   4    2    3 ar
   5    2   35 1
   6    3    4 ar
   7    3   36 1
   8    4    5 ar
   9    4   11 1
  10    5    6 ar
  11    5   37 1
  12    6    7 1
  13    7    8 2
  14    7    9 2
  15    7   10 am
  16   10   23 1
  17   10   38 1
  18   11   12 2
  19   11   15 1
  20   12   13 1
  21   12   39 1
  22   13   14 1
  23   13   16 1
  24   14   15 2
  25   15   40 1
  26   16   17 1
  27   16   41 1
  28   16   42 1
  29   17   18 ar
  30   17   22 ar
  31   18   19 ar
  32   18   43 1
  33   19   20 ar
  34   19   44 1
  35   20   21 ar
  36   20   45 1
  37   21   22 ar
  38   21   46 1
  39   22   47 1
  40   23   24 ar
  41   23   28 ar
  42   24   25 ar
  43   24   29 1
  44   25   26 ar
  45   25   48 1
  46   26   27 ar
  47   26   49 1
  48   27   28 ar
  49   27   32 1
  50   28   50 1
  51   29   30 1
  52   29   31 2
  53   30   51 1
  54   32   33 1
  55   33   52 1
  56   33   53 1
  57   33   54 1

#	End of record

