#	Name: ASD01410776
#	Creating user name:	WinNT
#	Creation time:	15. 06. 2019 19:18

#	Modifying user name:	WinNT
#	Modification time:	15. 06. 2019 19:18

#	Program:	/corina/corina34_cracker 3.40 0067  02.08.2006

@<TRIPOS>MOLECULE
ASD01410776
  90   96    0    0    0
SMALL
NO_CHARGES


@<TRIPOS>ATOM
   1 C1             2.3251     2.2136    -1.8201 C.3     
   2 C2             1.9257    -1.5726    -1.3329 C.3     
   3 C3             1.9306    -0.2372    -2.1103 C.3     
   4 N4             3.2439    -0.2280    -2.7764 N.am    
   5 C5             3.4933    -1.6093    -3.2179 C.3     
   6 C6             2.6714    -2.5300    -2.2937 C.3     
   7 O7             2.6329    -1.4423    -0.0980 O.3     
   8 C8             3.0461    -1.7819    -4.6466 C.2     
   9 O9             2.5634    -0.8460    -5.2482 O.2     
  10 N10            3.1826    -2.9764    -5.2558 N.am    
  11 C11            2.6367    -3.1797    -6.6000 C.3     
  12 C12            1.1352    -3.1117    -6.7089 C.2     
  13 N13            0.3827    -3.0094    -5.5954 N.am    
  14 O14            0.6038    -3.1491    -7.7985 O.2     
  15 S15           -1.2555    -2.8014    -5.7193 S.o2    
  16 C16           -1.8499    -4.3351    -6.4842 C.3     
  17 C17            3.4551    -2.6554    -7.7816 C.3     
  18 C18            3.3679    -4.1608    -7.5185 C.3     
  19 C19           -3.3341    -4.4146    -6.8469 C.3     
  20 C20           -2.2837    -4.2715    -7.9501 C.3     
  21 O21           -1.7001    -2.7109    -4.3727 O.2     
  22 O22           -1.4032    -1.7079    -6.6146 O.2     
  23 C23            2.6980    -2.1110    -8.9655 C.2     
  24 C24            2.8702    -0.8668    -9.3372 C.2     
  25 C25            2.3340    -2.3332     0.8797 C.ar    
  26 C26            2.9720    -2.2689     2.1404 C.ar    
  27 C27            1.4015    -3.3162     0.6744 C.ar    
  28 C28            1.1101    -4.2244     1.7011 C.ar    
  29 N29            1.7157    -4.1586     2.8749 N.ar    
  30 C30            2.6303    -3.2188     3.1346 C.ar    
  31 C31            0.1024    -5.2798     1.4669 C.2     
  32 C32            3.2672    -3.1597     4.3855 C.ar    
  33 C33            4.2053    -2.1817     4.6255 C.ar    
  34 C34            4.5314    -1.2465     3.6385 C.ar    
  35 C35            3.9319    -1.2846     2.4173 C.ar    
  36 C36            2.9248    -4.1610     5.4584 C.3     
  37 N37           -0.2608    -6.1834     2.3319 N.2     
  38 C38            1.8171     0.9376    -1.1494 C.3     
  39 C39            3.8177     2.0847    -2.1250 C.3     
  40 C40            4.0660     0.8227    -2.9120 C.2     
  41 O41            5.0114     0.7577    -3.6689 O.2     
  42 C42           -1.1725    -7.0441     1.9491 C.2     
  43 C43           -1.6297    -6.8930     0.6993 C.2     
  44 S44           -0.8058    -5.5131    -0.0246 S.3     
  45 C45           -1.6745    -8.1360     2.8584 C.3     
  46 C46           -2.9524    -7.6694     3.5585 C.3     
  47 C47           -1.9734    -9.3894     2.0336 C.3     
  48 O48            4.8209    -2.1239     5.8349 O.3     
  49 C49            5.7851    -1.0862     6.0232 C.3     
  50 H50            1.7787     2.3761    -2.7492 H       
  51 H51            2.1637     3.0613    -1.1542 H       
  52 H52            0.9054    -1.9140    -1.1578 H       
  53 H53            1.1280    -0.2214    -2.8477 H       
  54 H54            4.5542    -1.8430    -3.1285 H       
  55 H55            3.3322    -3.1906    -1.7325 H       
  56 H56            1.9582    -3.1126    -2.8767 H       
  57 H57            3.6423    -3.7014    -4.8042 H       
  58 H58            0.8008    -3.0575    -4.7214 H       
  59 H59           -1.3658    -5.2496    -6.1415 H       
  60 H60            4.3997    -2.1592    -7.5589 H       
  61 H61            4.2553    -4.6548    -7.1228 H       
  62 H62            2.7630    -4.7570    -8.2017 H       
  63 H63           -3.8265    -5.3815    -6.7431 H       
  64 H64           -3.9535    -3.5453    -6.6258 H       
  65 H65           -2.2120    -3.3080    -8.4548 H       
  66 H66           -2.0850    -5.1442    -8.5721 H       
  67 H67            2.0135    -2.7467    -9.5074 H       
  68 H68            3.5547    -0.2310    -8.7953 H       
  69 H69            2.3276    -0.4766   -10.1856 H       
  70 H70            0.8927    -3.3905    -0.2753 H       
  71 H71            5.2703    -0.4868     3.8467 H       
  72 H72            4.1931    -0.5566     1.6635 H       
  73 H73            3.5813    -5.0267     5.3704 H       
  74 H74            3.0572    -3.7029     6.4386 H       
  75 H75            1.8883    -4.4777     5.3424 H       
  76 H76            2.4125     0.7354    -0.2590 H       
  77 H77            0.7740     1.0706    -0.8623 H       
  78 H78            4.1449     2.9460    -2.7075 H       
  79 H79            4.3771     2.0455    -1.1903 H       
  80 H80           -2.3769    -7.5077     0.2195 H       
  81 H81           -0.9141    -8.3652     3.6051 H       
  82 H82           -3.7127    -7.4402     2.8119 H       
  83 H83           -3.3155    -8.4591     4.2162 H       
  84 H84           -2.7394    -6.7764     4.1461 H       
  85 H85           -2.7338    -9.1602     1.2870 H       
  86 H86           -1.0630    -9.7219     1.5349 H       
  87 H87           -2.3365   -10.1792     2.6913 H       
  88 H88            6.5858    -1.1972     5.2920 H       
  89 H89            5.3053    -0.1163     5.8922 H       
  90 H90            6.1997    -1.1536     7.0290 H       
@<TRIPOS>BOND
   1    1   38 1
   2    1   39 1
   3    1   50 1
   4    1   51 1
   5    2    3 1
   6    2    7 1
   7    2    6 1
   8    2   52 1
   9    3    4 1
  10    3   38 1
  11    3   53 1
  12    4    5 1
  13    4   40 am
  14    5    6 1
  15    5    8 1
  16    5   54 1
  17    6   55 1
  18    6   56 1
  19    7   25 1
  20    8    9 2
  21    8   10 am
  22   10   11 1
  23   10   57 1
  24   11   12 1
  25   11   17 1
  26   11   18 1
  27   12   13 am
  28   12   14 2
  29   13   15 am
  30   13   58 1
  31   15   16 1
  32   15   21 2
  33   15   22 2
  34   16   19 1
  35   16   20 1
  36   16   59 1
  37   17   18 1
  38   17   23 1
  39   17   60 1
  40   18   61 1
  41   18   62 1
  42   19   20 1
  43   19   63 1
  44   19   64 1
  45   20   65 1
  46   20   66 1
  47   23   24 2
  48   23   67 1
  49   24   68 1
  50   24   69 1
  51   25   26 ar
  52   25   27 ar
  53   26   30 ar
  54   26   35 ar
  55   27   28 ar
  56   27   70 1
  57   28   29 ar
  58   28   31 1
  59   29   30 ar
  60   30   32 ar
  61   31   37 2
  62   31   44 1
  63   32   33 ar
  64   32   36 1
  65   33   34 ar
  66   33   48 1
  67   34   35 ar
  68   34   71 1
  69   35   72 1
  70   36   73 1
  71   36   74 1
  72   36   75 1
  73   37   42 1
  74   38   76 1
  75   38   77 1
  76   39   40 1
  77   39   78 1
  78   39   79 1
  79   40   41 2
  80   42   43 2
  81   42   45 1
  82   43   44 1
  83   43   80 1
  84   45   46 1
  85   45   47 1
  86   45   81 1
  87   46   82 1
  88   46   83 1
  89   46   84 1
  90   47   85 1
  91   47   86 1
  92   47   87 1
  93   48   49 1
  94   49   88 1
  95   49   89 1
  96   49   90 1

#	End of record

