#	Name: ASD03731607
#	Creating user name:	WinNT
#	Creation time:	15. 06. 2019 20:46

#	Modifying user name:	WinNT
#	Modification time:	15. 06. 2019 20:46

#	Program:	/corina/corina34_cracker 3.40 0067  02.08.2006

@<TRIPOS>MOLECULE
ASD03731607
  40   41    0    0    0
SMALL
NO_CHARGES


@<TRIPOS>ATOM
   1 C1            -0.1361     1.4672     0.0333 C.2     
   2 C2            -0.0850    -0.0063     0.0191 C.ar    
   3 C3             1.1402    -0.6648    -0.1384 C.ar    
   4 C4             1.1828    -2.0445    -0.1510 C.ar    
   5 C5             0.0129    -2.7784    -0.0079 C.ar    
   6 C6            -1.2079    -2.1271     0.1491 C.ar    
   7 C7            -1.2595    -0.7502     0.1687 C.ar    
   8 O8             0.8870     2.1123    -0.0920 O.2     
   9 N9            -1.3176     2.0991     0.1795 N.am    
  10 S10           -1.3750     3.7540     0.1954 S.o2    
  11 O11           -2.7501     4.0551     0.3891 O.2     
  12 O12           -0.4001     4.1292     1.1587 O.2     
  13 C13           -0.8451     4.2413    -1.4697 C.3     
  14 O14            0.0593    -4.1349    -0.0213 O.3     
  15 C15           -0.1523    -4.7691    -1.2052 C.ar    
  16 C16           -0.0462    -6.1551    -1.2830 C.ar    
  17 C17           -0.2632    -6.7965    -2.4915 C.ar    
  18 C18           -0.5844    -6.0603    -3.6171 C.ar    
  19 C19           -0.6897    -4.6842    -3.5400 C.ar    
  20 C20           -0.4796    -4.0380    -2.3358 C.ar    
  21 C21           -1.0396    -3.8869    -4.7701 C.3     
  22 F22           -1.2080    -4.7536    -5.8553 F       
  23 F23           -2.2275    -3.1826    -4.5470 F       
  24 F24           -0.0078    -2.9845    -5.0499 F       
  25 O25            0.2701    -6.8776    -0.1753 O.3     
  26 C26            0.3616    -8.2953    -0.3296 C.3     
  27 F27           -2.3431    -2.8464     0.2875 F       
  28 F28            2.2789     0.0487    -0.2782 F       
  29 H29            2.1274    -2.5537    -0.2728 H       
  30 H30           -2.2064    -0.2463     0.2949 H       
  31 H31           -2.1342     1.5845     0.2754 H       
  32 H32           -1.5273     3.8176    -2.2066 H       
  33 H33           -0.8531     5.3283    -1.5499 H       
  34 H34            0.1635     3.8709    -1.6529 H       
  35 H35           -0.1812    -7.8715    -2.5547 H       
  36 H36           -0.7530    -6.5616    -4.5588 H       
  37 H37           -0.5665    -2.9631    -2.2774 H       
  38 H38            0.6197    -8.7490     0.6272 H       
  39 H39           -0.5971    -8.6863    -0.6704 H       
  40 H40            1.1320    -8.5319    -1.0635 H       
@<TRIPOS>BOND
   1    1    2 1
   2    1    8 2
   3    1    9 am
   4    2    3 ar
   5    2    7 ar
   6    3    4 ar
   7    3   28 1
   8    4    5 ar
   9    4   29 1
  10    5    6 ar
  11    5   14 1
  12    6    7 ar
  13    6   27 1
  14    7   30 1
  15    9   10 am
  16    9   31 1
  17   10   11 2
  18   10   12 2
  19   10   13 1
  20   13   32 1
  21   13   33 1
  22   13   34 1
  23   14   15 1
  24   15   16 ar
  25   15   20 ar
  26   16   17 ar
  27   16   25 1
  28   17   18 ar
  29   17   35 1
  30   18   19 ar
  31   18   36 1
  32   19   20 ar
  33   19   21 1
  34   20   37 1
  35   21   22 1
  36   21   23 1
  37   21   24 1
  38   25   26 1
  39   26   38 1
  40   26   39 1
  41   26   40 1

#	End of record

