#	Name: ASD01411125
#	Creating user name:	WinNT
#	Creation time:	15. 06. 2019 19:19

#	Modifying user name:	WinNT
#	Modification time:	15. 06. 2019 19:19

#	Program:	/corina/corina34_cracker 3.40 0067  02.08.2006

@<TRIPOS>MOLECULE
ASD01411125
  65   66    0    0    0
SMALL
NO_CHARGES


@<TRIPOS>ATOM
   1 C1             0.3910     2.7419     0.3777 C.2     
   2 C2             1.1174     1.6533    -0.0406 C.2     
   3 C3             2.4712     1.8245    -0.0114 C.2     
   4 S4             2.8582     3.4369     0.5718 S.3     
   5 C5             1.1529     3.8227     0.7561 C.2     
   6 C6             3.4334     0.8368    -0.3977 C.1     
   7 C7             4.2223     0.0271    -0.7144 C.1     
   8 C8             5.2114    -0.9882    -1.1115 C.3     
   9 C9             6.6219    -0.4211    -0.9384 C.3     
  10 C10            5.0494    -2.2295    -0.2319 C.3     
  11 C11            4.9912    -1.3691    -2.5769 C.3     
  12 C12            0.6424     5.0562     1.2219 C.2     
  13 O13           -0.5601     5.2220     1.3123 O.2     
  14 O14            1.4886     6.0501     1.5662 O.3     
  15 N15           -1.0042     2.7522     0.4104 N.am    
  16 C16           -1.6542     2.4183     1.5429 C.2     
  17 C17           -0.8805     1.9251     2.7383 C.3     
  18 O18           -2.8619     2.5147     1.5998 O.2     
  19 C19            0.2581    -0.0515     3.7576 C.3     
  20 C20           -0.5275     0.4492     2.5439 C.3     
  21 C21           -1.7333     2.0838     3.9987 C.3     
  22 C22           -0.9478     1.5831     5.2124 C.3     
  23 C23           -0.5947     0.1071     5.0179 C.3     
  24 C24            0.1908    -0.3936     6.2316 C.3     
  25 C25           -1.7622     3.1260    -0.7862 C.3     
  26 C26           -2.5332     4.3926    -0.5172 C.2     
  27 N27           -2.8555     5.2144    -1.5356 N.am    
  28 O28           -2.8636     4.6723     0.6157 O.2     
  29 C29           -2.7367     2.0021    -1.1444 C.3     
  30 C30           -3.6050     6.4457    -1.2741 C.3     
  31 C31           -2.4564     4.8765    -2.9041 C.3     
  32 H32            0.6535     0.7340    -0.3666 H       
  33 H33            6.7789    -0.1497     0.1055 H       
  34 H34            7.3544    -1.1729    -1.2325 H       
  35 H35            6.7374     0.4633    -1.5651 H       
  36 H36            4.0445    -2.6335    -0.3552 H       
  37 H37            5.7818    -2.9813    -0.5260 H       
  38 H38            5.2063    -1.9582     0.8120 H       
  39 H39            5.1066    -0.4847    -3.2035 H       
  40 H40            5.7236    -2.1208    -2.8709 H       
  41 H41            3.9863    -1.7730    -2.7001 H       
  42 H42            1.0472     6.8541     1.8725 H       
  43 H43            0.0352     2.5069     2.8437 H       
  44 H44            0.5096    -1.1030     3.6191 H       
  45 H45            1.1738     0.5303     3.8629 H       
  46 H46           -1.4432    -0.1326     2.4385 H       
  47 H47            0.0801     0.3361     1.6460 H       
  48 H48           -1.9848     3.1353     4.1372 H       
  49 H49           -2.6490     1.5020     3.8933 H       
  50 H50           -0.0321     2.1649     5.3177 H       
  51 H51           -1.5554     1.6961     6.1103 H       
  52 H52           -1.5105    -0.4747     4.9126 H       
  53 H53            1.1065     0.1882     6.3370 H       
  54 H54           -0.4168    -0.2806     7.1295 H       
  55 H55            0.4423    -1.4451     6.0931 H       
  56 H56           -1.0743     3.2886    -1.6160 H       
  57 H57           -3.4494     1.8662    -0.3310 H       
  58 H58           -3.2724     2.2628    -2.0572 H       
  59 H59           -2.1824     1.0765    -1.3002 H       
  60 H60           -2.9081     7.2605    -1.0775 H       
  61 H61           -4.2152     6.6912    -2.1433 H       
  62 H62           -4.2494     6.3016    -0.4069 H       
  63 H63           -1.9119     3.9322    -2.9011 H       
  64 H64           -3.3446     4.7818    -3.5287 H       
  65 H65           -1.8156     5.6641    -3.3006 H       
@<TRIPOS>BOND
   1    1    2 1
   2    1    5 2
   3    1   15 1
   4    2    3 2
   5    2   32 1
   6    3    4 1
   7    3    6 1
   8    4    5 1
   9    5   12 1
  10    6    7 3
  11    7    8 1
  12    8    9 1
  13    8   10 1
  14    8   11 1
  15    9   33 1
  16    9   34 1
  17    9   35 1
  18   10   36 1
  19   10   37 1
  20   10   38 1
  21   11   39 1
  22   11   40 1
  23   11   41 1
  24   12   13 2
  25   12   14 1
  26   14   42 1
  27   15   16 am
  28   15   25 1
  29   16   18 2
  30   16   17 1
  31   17   21 1
  32   17   20 1
  33   17   43 1
  34   19   20 1
  35   19   23 1
  36   19   44 1
  37   19   45 1
  38   20   46 1
  39   20   47 1
  40   21   22 1
  41   21   48 1
  42   21   49 1
  43   22   23 1
  44   22   50 1
  45   22   51 1
  46   23   24 1
  47   23   52 1
  48   24   53 1
  49   24   54 1
  50   24   55 1
  51   25   26 1
  52   25   29 1
  53   25   56 1
  54   26   27 am
  55   26   28 2
  56   27   30 1
  57   27   31 1
  58   29   57 1
  59   29   58 1
  60   29   59 1
  61   30   60 1
  62   30   61 1
  63   30   62 1
  64   31   63 1
  65   31   64 1
  66   31   65 1

#	End of record

