#	Name: ASD01881728
#	Creating user name:	WinNT
#	Creation time:	15. 06. 2019 19:43

#	Modifying user name:	WinNT
#	Modification time:	15. 06. 2019 19:43

#	Program:	/corina/corina34_cracker 3.40 0067  02.08.2006

@<TRIPOS>MOLECULE
ASD01881728
  54   57    0    0    0
SMALL
NO_CHARGES


@<TRIPOS>ATOM
   1 N1            -0.1693     1.3522     0.1730 N.am    
   2 C2             0.0664    -0.0972     0.1924 C.3     
   3 C3             0.5510    -0.5371    -1.1950 C.3     
   4 C4             1.6762     0.3799    -1.6214 C.2     
   5 C5             1.4385     1.8737    -1.5885 C.3     
   6 C6             0.9317     2.2532    -0.1913 C.3     
   7 C7            -1.3836     1.8495     0.4807 C.2     
   8 O8            -2.2911     1.0974     0.7762 O.2     
   9 O9            -1.5912     3.1796     0.4605 O.3     
  10 O10            2.7385    -0.0696    -1.9791 O.2     
  11 O11            1.0247    -1.8840    -1.1343 O.3     
  12 N12            1.0096    -4.9879    -5.6476 N.pl3   
  13 N13            1.4139    -6.1754    -5.0198 N.2     
  14 N14            1.5795    -5.9600    -3.7625 N.2     
  15 C15            1.3110    -4.6722    -3.4683 C.ar    
  16 C16            0.9431    -4.0288    -4.6628 C.ar    
  17 C17            1.3358    -3.9376    -2.2748 C.ar    
  18 C18            1.0012    -2.5993    -2.2906 C.ar    
  19 C19            0.6390    -1.9757    -3.4822 C.ar    
  20 C20            0.6090    -2.6793    -4.6531 C.ar    
  21 C21            0.7213    -4.8034    -7.0720 C.3     
  22 C22           -0.7598    -5.0845    -7.3331 C.3     
  23 C23           -1.2883    -4.8320    -8.7466 C.3     
  24 C24           -1.1051    -6.2651    -8.2430 C.3     
  25 Br25           1.8260    -4.7760    -0.6523 Br      
  26 C26           -2.9237     3.6441     0.8028 C.3     
  27 C27           -3.2708     3.1953     2.2237 C.3     
  28 C28           -2.9668     5.1715     0.7255 C.3     
  29 C29           -3.9373     3.0549    -0.1801 C.3     
  30 H30            0.8265    -0.3339     0.9369 H       
  31 H31           -0.8611    -0.6150     0.4366 H       
  32 H32           -0.2695    -0.4680    -1.9092 H       
  33 H33            2.3712     2.3983    -1.7955 H       
  34 H34            0.6918     2.1430    -2.3354 H       
  35 H35            0.5738     3.2828    -0.1996 H       
  36 H36            1.7414     2.1514     0.5313 H       
  37 H37            0.3790    -0.9274    -3.4805 H       
  38 H38            0.3266    -2.1867    -5.5718 H       
  39 H39            0.9527    -3.7779    -7.3597 H       
  40 H40            1.3305    -5.4915    -7.6581 H       
  41 H41           -1.4316    -4.8773    -6.5001 H       
  42 H42           -2.3080    -4.4591    -8.8435 H       
  43 H43           -0.5809    -4.4657    -9.4905 H       
  44 H44           -0.2771    -6.8416    -8.6556 H       
  45 H45           -2.0043    -6.8350    -8.0086 H       
  46 H46           -2.5487     3.6151     2.9240 H       
  47 H47           -4.2711     3.5440     2.4807 H       
  48 H48           -3.2401     2.1071     2.2788 H       
  49 H49           -2.7195     5.4912    -0.2867 H       
  50 H50           -3.9671     5.5202     0.9825 H       
  51 H51           -2.2446     5.5913     1.4258 H       
  52 H52           -3.9066     1.9667    -0.1250 H       
  53 H53           -4.9376     3.4035     0.0769 H       
  54 H54           -3.6900     3.3746    -1.1924 H       
@<TRIPOS>BOND
   1    1    2 1
   2    1    6 1
   3    1    7 am
   4    2    3 1
   5    2   30 1
   6    2   31 1
   7    3    4 1
   8    3   11 1
   9    3   32 1
  10    4    5 1
  11    4   10 2
  12    5    6 1
  13    5   33 1
  14    5   34 1
  15    6   35 1
  16    6   36 1
  17    7    8 2
  18    7    9 1
  19    9   26 1
  20   11   18 1
  21   12   13 1
  22   12   16 1
  23   12   21 1
  24   13   14 2
  25   14   15 1
  26   15   16 ar
  27   15   17 ar
  28   16   20 ar
  29   17   18 ar
  30   17   25 1
  31   18   19 ar
  32   19   20 ar
  33   19   37 1
  34   20   38 1
  35   21   22 1
  36   21   39 1
  37   21   40 1
  38   22   23 1
  39   22   24 1
  40   22   41 1
  41   23   24 1
  42   23   42 1
  43   23   43 1
  44   24   44 1
  45   24   45 1
  46   26   27 1
  47   26   29 1
  48   26   28 1
  49   27   46 1
  50   27   47 1
  51   27   48 1
  52   28   49 1
  53   28   50 1
  54   28   51 1
  55   29   52 1
  56   29   53 1
  57   29   54 1

#	End of record

