#	Name: ASD00310365
#	Creating user name:	WinNT
#	Creation time:	15. 06. 2019 18:34

#	Modifying user name:	WinNT
#	Modification time:	15. 06. 2019 18:34

#	Program:	/corina/corina34_cracker 3.40 0067  02.08.2006

@<TRIPOS>MOLECULE
ASD00310365
  40   43    0    0    0
SMALL
NO_CHARGES


@<TRIPOS>ATOM
   1 N1            -0.0153     1.2793     0.0091 N.pl3   
   2 N2             0.0021    -0.0041     0.0020 N.2     
   3 C3             1.2291    -0.4800    -0.0122 C.2     
   4 C4             2.1243     0.6858    -0.0145 C.ar    
   5 C5             3.5010     0.8763    -0.0270 C.ar    
   6 C6             4.0087     2.1694    -0.0253 C.ar    
   7 C7             3.1367     3.2664    -0.0106 C.ar    
   8 C8             1.7841     3.0825     0.0021 C.ar    
   9 C9             1.2547     1.7947    -0.0003 C.ar    
  10 C10            1.6260    -1.8978    -0.0232 C.2     
  11 O11            2.8033    -2.1992    -0.0357 O.2     
  12 O12            0.6836    -2.8615    -0.0195 O.3     
  13 C13            5.4746     2.3891    -0.0385 C.ar    
  14 C14            6.0396     3.2656    -0.9657 C.ar    
  15 C15            7.4002     3.4708    -0.9794 C.ar    
  16 C16            8.2171     2.8001    -0.0633 C.ar    
  17 C17            7.6490     1.9218     0.8654 C.ar    
  18 C18            6.2873     1.7234     0.8799 C.ar    
  19 C19            9.6332     3.0120    -0.0764 C.1     
  20 C20           10.7943     3.1857    -0.0871 C.1     
  21 C21           12.2104     3.3976    -0.1002 C.ar    
  22 C22           13.0290     2.7288     0.8141 C.ar    
  23 C23           14.3921     2.9375     0.7951 C.ar    
  24 C24           14.9497     3.8070    -0.1258 C.ar    
  25 C25           14.1454     4.4732    -1.0338 C.ar    
  26 C26           12.7814     4.2698    -1.0310 C.ar    
  27 Cl27           3.7839     4.8773    -0.0081 Cl      
  28 H28           -0.8235     1.8157     0.0159 H       
  29 H29            4.1692     0.0279    -0.0376 H       
  30 H30            1.1238     3.9370     0.0141 H       
  31 H31            0.9927    -3.7777    -0.0270 H       
  32 H32            5.4086     3.7831    -1.6732 H       
  33 H33            7.8372     4.1491    -1.6974 H       
  34 H34            8.2783     1.4029     1.5733 H       
  35 H35            5.8479     1.0490     1.5999 H       
  36 H36           12.5951     2.0504     1.5338 H       
  37 H37           15.0259     2.4214     1.5010 H       
  38 H38           16.0177     3.9668    -0.1357 H       
  39 H39           14.5876     5.1508    -1.7492 H       
  40 H40           12.1554     4.7869    -1.7431 H       
@<TRIPOS>BOND
   1    1    2 1
   2    1    9 1
   3    1   28 1
   4    2    3 2
   5    3    4 1
   6    3   10 1
   7    4    5 ar
   8    4    9 ar
   9    5    6 ar
  10    5   29 1
  11    6    7 ar
  12    6   13 1
  13    7    8 ar
  14    7   27 1
  15    8    9 ar
  16    8   30 1
  17   10   11 2
  18   10   12 1
  19   12   31 1
  20   13   14 ar
  21   13   18 ar
  22   14   15 ar
  23   14   32 1
  24   15   16 ar
  25   15   33 1
  26   16   17 ar
  27   16   19 1
  28   17   18 ar
  29   17   34 1
  30   18   35 1
  31   19   20 3
  32   20   21 1
  33   21   22 ar
  34   21   26 ar
  35   22   23 ar
  36   22   36 1
  37   23   24 ar
  38   23   37 1
  39   24   25 ar
  40   24   38 1
  41   25   26 ar
  42   25   39 1
  43   26   40 1

#	End of record

