#	Name: ASD08150733
#	Creating user name:	WinNT
#	Creation time:	15. 06. 2019 21:16

#	Modifying user name:	WinNT
#	Modification time:	15. 06. 2019 21:16

#	Program:	/corina/corina34_cracker 3.40 0067  02.08.2006

@<TRIPOS>MOLECULE
ASD08150733
  44   45    0    0    0
SMALL
NO_CHARGES


@<TRIPOS>ATOM
   1 C1            -0.0187     1.5258     0.0104 C.3     
   2 C2             0.0021    -0.0041     0.0020 C.3     
   3 C3             3.4246     2.2795    -1.0780 C.2     
   4 N4             2.1837     1.8318    -1.0467 N.2     
   5 C5             1.3951     2.0474    -0.0003 C.2     
   6 C6             1.8866     2.7552     1.0763 C.2     
   7 C7             3.2001     3.2280     1.0411 C.2     
   8 N8             3.9787     2.9853    -0.0535 N.am    
   9 S9             4.6904     2.1425    -2.3107 S.3     
  10 C10            5.2805     3.3768    -0.2451 C.2     
  11 C11            5.8881     3.0518    -1.3728 C.2     
  12 O12            3.6504     3.8568     1.9861 O.2     
  13 C13            6.0063     4.1640     0.8153 C.3     
  14 Br14           0.7933     3.0825     2.5841 Br      
  15 N15           -0.7292     2.0124    -1.1797 N.4     
  16 H16           -0.5289     1.8773     0.9072 H       
  17 H17           -1.0205    -0.3814     0.0098 H       
  18 H18            0.5123    -0.3556    -0.8948 H       
  19 H19            0.5293    -0.3651     0.8851 H       
  20 H20            6.9020     3.2875    -1.6607 H       
  21 H21            6.5076     3.4779     1.4979 H       
  22 H22            6.7451     4.8125     0.3444 H       
  23 H23            5.2912     4.7711     1.3704 H       
  24 H24           -1.6758     1.6631    -1.1725 H       
  25 H25           -0.7428     3.0213    -1.1741 H       
  26 H26           -0.2569     1.6870    -2.0098 H       
  27 C27           15.3268    13.1563     8.4305 C.2     
  28 C28           15.3472    11.6495     8.4222 C.3     
  29 O29           16.3743    13.7802     8.4239 O.co2   
  30 O30           14.2628    13.7515     8.4388 O.co2   
  31 C31           14.7660    11.1321     9.7128 C.ar    
  32 C32           13.4576    10.6877     9.7524 C.ar    
  33 C33           12.9244    10.2132    10.9362 C.ar    
  34 C34           13.6997    10.1826    12.0803 C.ar    
  35 C35           15.0083    10.6262    12.0404 C.ar    
  36 C36           15.5429    11.0966    10.8556 C.ar    
  37 O37           16.6945    11.1921     8.2895 O.3     
  38 H38           14.7548    11.2827     7.5841 H       
  39 H39           12.8519    10.7116     8.8586 H       
  40 H40           11.9020     9.8666    10.9674 H       
  41 H41           13.2829     9.8125    13.0053 H       
  42 H42           15.6140    10.6026    12.9343 H       
  43 H43           16.5664    11.4397    10.8236 H       
  44 H44           17.2802    11.4815     9.0025 H       
@<TRIPOS>BOND
   1    1    2 1
   2    1    5 1
   3    1   15 1
   4    1   16 1
   5    2   17 1
   6    2   18 1
   7    2   19 1
   8    3    4 2
   9    3    8 1
  10    3    9 1
  11    4    5 1
  12    5    6 2
  13    6    7 1
  14    6   14 1
  15    7    8 am
  16    7   12 2
  17    8   10 1
  18    9   11 1
  19   10   11 2
  20   10   13 1
  21   11   20 1
  22   13   21 1
  23   13   22 1
  24   13   23 1
  25   15   24 1
  26   15   25 1
  27   15   26 1
  28   27   28 1
  29   27   29 ar
  30   27   30 ar
  31   28   31 1
  32   28   37 1
  33   28   38 1
  34   31   32 ar
  35   31   36 ar
  36   32   33 ar
  37   32   39 1
  38   33   34 ar
  39   33   40 1
  40   34   35 ar
  41   34   41 1
  42   35   36 ar
  43   35   42 1
  44   36   43 1
  45   37   44 1

#	End of record

