#	Name: ASD03082189
#	Creating user name:	WinNT
#	Creation time:	15. 06. 2019 20:27

#	Modifying user name:	WinNT
#	Modification time:	15. 06. 2019 20:27

#	Program:	/corina/corina34_cracker 3.40 0067  02.08.2006

@<TRIPOS>MOLECULE
ASD03082189
  44   46    0    0    0
SMALL
NO_CHARGES


@<TRIPOS>ATOM
   1 C1             0.0462     1.4435    -0.2102 C.ar    
   2 C2             0.0251     0.1221     0.2175 C.ar    
   3 C3             1.1702    -0.4473     0.7608 C.ar    
   4 C4             2.3248     0.3015     0.8738 C.ar    
   5 C5             2.3421     1.6172     0.4473 C.ar    
   6 C6             1.2046     2.1868    -0.0942 C.ar    
   7 N7            -1.1452    -0.6327     0.1021 N.pl3   
   8 H8            -1.0924    -1.5925    -0.0280 H       
   9 C9            -2.3905    -0.0053     0.1741 C.2     
  10 N10           -3.5690    -0.5997    -0.0167 N.2     
  11 N11           -2.5902     1.2641     0.4461 N.2     
  12 N12           -3.9782     1.4751     0.4175 N.pl3   
  13 C13           -4.5392     0.2808     0.1247 C.2     
  14 C14           -4.6794     2.7380     0.6614 C.3     
  15 C15           -5.9879     0.0097    -0.0133 C.ar    
  16 C16           -6.8914     1.0470    -0.2767 C.ar    
  17 C17           -8.2329     0.7547    -0.3989 C.ar    
  18 N18           -8.6732    -0.4829    -0.2711 N.ar    
  19 C19           -7.8562    -1.4952    -0.0220 C.ar    
  20 C20           -6.4891    -1.2876     0.1098 C.ar    
  21 O21           -4.8248     3.4478    -0.5703 O.3     
  22 N22           -8.3718    -2.7803     0.1036 N.pl3   
  23 C23           -7.4930    -3.8880     0.4868 C.3     
  24 C24           -9.7940    -3.0267    -0.1474 C.3     
  25 C25            3.5672    -0.3152     1.4629 C.3     
  26 F26            4.3254    -0.9009     0.4435 F       
  27 F27            4.3244     0.6760     2.0965 F       
  28 F28            3.2052    -1.2931     2.3955 F       
  29 H29           -0.8408     1.8878    -0.6370 H       
  30 H30            1.1571    -1.4743     1.0946 H       
  31 H31            3.2463     2.2009     0.5375 H       
  32 H32            1.2215     3.2144    -0.4262 H       
  33 H33           -5.6643     2.5318     1.0804 H       
  34 H34           -4.1053     3.3426     1.3635 H       
  35 H35           -6.5414     2.0633    -0.3824 H       
  36 H36           -8.9343     1.5504    -0.6020 H       
  37 H37           -5.8255    -2.1151     0.3129 H       
  38 H38           -5.2815     4.2958    -0.4841 H       
  39 H39           -7.4809    -3.9833     1.5726 H       
  40 H40           -7.8614    -4.8138     0.0449 H       
  41 H41           -6.4827    -3.6911     0.1282 H       
  42 H42          -10.2826    -2.0908    -0.4185 H       
  43 H43           -9.9004    -3.7417    -0.9632 H       
  44 H44          -10.2571    -3.4309     0.7527 H       
@<TRIPOS>BOND
   1    1    2 ar
   2    1    6 ar
   3    1   29 1
   4    2    3 ar
   5    2    7 1
   6    3    4 ar
   7    3   30 1
   8    4    5 ar
   9    4   25 1
  10    5    6 ar
  11    5   31 1
  12    6   32 1
  13    7    8 1
  14    7    9 1
  15    9   10 1
  16    9   11 2
  17   10   13 2
  18   11   12 1
  19   12   13 1
  20   12   14 1
  21   13   15 1
  22   14   21 1
  23   14   33 1
  24   14   34 1
  25   15   16 ar
  26   15   20 ar
  27   16   17 ar
  28   16   35 1
  29   17   18 ar
  30   17   36 1
  31   18   19 ar
  32   19   20 ar
  33   19   22 1
  34   20   37 1
  35   21   38 1
  36   22   23 1
  37   22   24 1
  38   23   39 1
  39   23   40 1
  40   23   41 1
  41   24   42 1
  42   24   43 1
  43   24   44 1
  44   25   26 1
  45   25   27 1
  46   25   28 1

#	End of record

