#	Name: ASD09890033
#	Creating user name:	WinNT
#	Creation time:	15. 06. 2019 21:24

#	Modifying user name:	WinNT
#	Modification time:	15. 06. 2019 21:24

#	Program:	/corina/corina34_cracker 3.40 0067  02.08.2006

@<TRIPOS>MOLECULE
ASD09890033
  46   48    0    0    0
SMALL
NO_CHARGES


@<TRIPOS>ATOM
   1 C1            -0.0167     1.3784     0.0096 C.ar    
   2 C2             0.0021    -0.0041     0.0020 C.ar    
   3 C3             1.2074    -0.6814    -0.0127 C.ar    
   4 C4             2.3963     0.0221    -0.0203 C.ar    
   5 C5             2.3802     1.4093    -0.0132 C.ar    
   6 C6             1.1695     2.0865     0.0021 C.ar    
   7 O7             3.5484     2.1036    -0.0202 O.3     
   8 C8             3.4557     3.5296    -0.0122 C.3     
   9 C9             4.8408     4.1231    -0.0217 C.2     
  10 N10            5.5770     4.4484    -1.1296 N.pl3   
  11 C11            6.7572     4.9498    -0.6544 C.2     
  12 N12            6.6913     4.9099     0.6564 N.2     
  13 N13            5.5581     4.4273     1.0231 N.2     
  14 S14            8.1101     5.5375    -1.6182 S.3     
  15 C15            9.2524     6.0154    -0.2981 C.3     
  16 C16            5.1991     4.2980    -2.4733 C.ar    
  17 C17           10.5842     6.4543    -0.9101 C.3     
  18 C18            8.6521     7.1738     0.5012 C.3     
  19 C19            5.0293     5.4175    -3.2761 C.ar    
  20 C20            4.6580     5.2691    -4.5978 C.ar    
  21 C21            4.4543     4.0014    -5.1232 C.ar    
  22 C22            4.6234     2.8823    -4.3210 C.ar    
  23 C23            5.0006     3.0295    -3.0008 C.ar    
  24 O24            4.0883     3.8558    -6.4244 O.3     
  25 C25            3.8956     2.5216    -6.8987 C.3     
  26 H26           -0.9595     1.9052     0.0170 H       
  27 H27           -0.9263    -0.5558     0.0080 H       
  28 H28            1.2194    -1.7613    -0.0179 H       
  29 H29            3.3375    -0.5074    -0.0315 H       
  30 H30            1.1543     3.1664     0.0073 H       
  31 H31            2.9113     3.8632    -0.8956 H       
  32 H32            2.9274     3.8543     0.8842 H       
  33 H33            9.4192     5.1654     0.3635 H       
  34 H34           10.4175     7.3043    -1.5717 H       
  35 H35           11.2721     6.7421    -0.1151 H       
  36 H36           11.0119     5.6291    -1.4795 H       
  37 H37            9.3401     7.4616     1.2962 H       
  38 H38            8.4854     8.0238    -0.1604 H       
  39 H39            7.7033     6.8611     0.9372 H       
  40 H40            5.1872     6.4045    -2.8671 H       
  41 H41            4.5259     6.1401    -5.2226 H       
  42 H42            4.4643     1.8956    -4.7302 H       
  43 H43            5.1326     2.1583    -2.3764 H       
  44 H44            4.8235     1.9601    -6.7908 H       
  45 H45            3.1094     2.0395    -6.3176 H       
  46 H46            3.6067     2.5477    -7.9494 H       
@<TRIPOS>BOND
   1    1    2 ar
   2    1    6 ar
   3    1   26 1
   4    2    3 ar
   5    2   27 1
   6    3    4 ar
   7    3   28 1
   8    4    5 ar
   9    4   29 1
  10    5    6 ar
  11    5    7 1
  12    6   30 1
  13    7    8 1
  14    8    9 1
  15    8   31 1
  16    8   32 1
  17    9   10 1
  18    9   13 2
  19   10   11 1
  20   10   16 1
  21   11   12 2
  22   11   14 1
  23   12   13 1
  24   14   15 1
  25   15   17 1
  26   15   18 1
  27   15   33 1
  28   16   19 ar
  29   16   23 ar
  30   17   34 1
  31   17   35 1
  32   17   36 1
  33   18   37 1
  34   18   38 1
  35   18   39 1
  36   19   20 ar
  37   19   40 1
  38   20   21 ar
  39   20   41 1
  40   21   22 ar
  41   21   24 1
  42   22   23 ar
  43   22   42 1
  44   23   43 1
  45   24   25 1
  46   25   44 1
  47   25   45 1
  48   25   46 1

#	End of record

