#	Name: ASD01140575
#	Creating user name:	WinNT
#	Creation time:	15. 06. 2019 19:01

#	Modifying user name:	WinNT
#	Modification time:	15. 06. 2019 19:01

#	Program:	/corina/corina34_cracker 3.40 0067  02.08.2006

@<TRIPOS>MOLECULE
ASD01140575
  41   43    0    0    0
SMALL
NO_CHARGES


@<TRIPOS>ATOM
   1 O1             0.3878     1.5527     0.6000 O.3     
   2 O2            -1.0614    -0.3217     0.4470 O.3     
   3 C3             1.7453     1.8233     0.2097 C.3     
   4 C4             2.6935     1.4753     1.3790 C.3     
   5 C5             2.0329     0.9057    -0.9704 C.3     
   6 C6             1.9556     3.3144    -0.0088 C.3     
   7 C7             1.1185    -0.3149    -0.6737 C.3     
   8 C8             0.2968     0.1079     0.5605 C.3     
   9 C9             2.4790     2.6597     2.3297 C.3     
  10 C10            2.3912     3.8751     1.3679 C.3     
  11 C11            0.9474    -0.4037     1.8515 C.3     
  12 C12            2.3588     0.1329     1.9344 C.2     
  13 C13            1.9635    -1.5499    -0.3548 C.3     
  14 C14            0.6504     3.9729    -0.4600 C.3     
  15 C15            1.0470    -2.7611    -0.1702 C.3     
  16 C16            2.9337    -1.8156    -1.5077 C.3     
  17 C17            3.2955    -0.5881     2.4990 C.2     
  18 H18            3.7246     1.4716     1.0254 H       
  19 H19            1.7509     1.3820    -1.9094 H       
  20 H20            3.0819     0.6098    -0.9845 H       
  21 H21            2.7385     3.4806    -0.7488 H       
  22 H22            0.4602    -0.5115    -1.5198 H       
  23 H23            1.5497     2.5423     2.8871 H       
  24 H24            3.3251     2.7665     3.0085 H       
  25 H25            3.3654     4.3568     1.2842 H       
  26 H26            1.6514     4.5877     1.7324 H       
  27 H27            0.3740    -0.0573     2.7114 H       
  28 H28            0.9711    -1.4934     1.8414 H       
  29 H29            2.5272    -1.3777     0.5620 H       
  30 H30           -0.1125     3.8291     0.3050 H       
  31 H31            0.8154     5.0395    -0.6126 H       
  32 H32            0.3185     3.5193    -1.3939 H       
  33 H33           -1.6215    -0.0550     1.1887 H       
  34 H34            0.5652    -3.0000    -1.1182 H       
  35 H35            1.6364    -3.6152     0.1633 H       
  36 H36            0.2866    -2.5309     0.5761 H       
  37 H37            3.5866    -0.9528    -1.6393 H       
  38 H38            3.5356    -2.6955    -1.2806 H       
  39 H39            2.3700    -1.9879    -2.4246 H       
  40 H40            4.3050    -0.2094     2.5607 H       
  41 H41            3.0582    -1.5612     2.9029 H       
@<TRIPOS>BOND
   1    1    8 1
   2    1    3 1
   3    2   33 1
   4    2    8 1
   5    3    4 1
   6    3    5 1
   7    3    6 1
   8    4    9 1
   9    4   12 1
  10    4   18 1
  11    5    7 1
  12    5   19 1
  13    5   20 1
  14    6   10 1
  15    6   14 1
  16    6   21 1
  17    7    8 1
  18    7   13 1
  19    7   22 1
  20    8   11 1
  21    9   10 1
  22    9   23 1
  23    9   24 1
  24   10   25 1
  25   10   26 1
  26   11   12 1
  27   11   27 1
  28   11   28 1
  29   12   17 2
  30   13   15 1
  31   13   16 1
  32   13   29 1
  33   14   30 1
  34   14   31 1
  35   14   32 1
  36   15   34 1
  37   15   35 1
  38   15   36 1
  39   16   37 1
  40   16   38 1
  41   16   39 1
  42   17   40 1
  43   17   41 1

#	End of record

