#	Name: ASD07930706
#	Creating user name:	WinNT
#	Creation time:	15. 06. 2019 21:13

#	Modifying user name:	WinNT
#	Modification time:	15. 06. 2019 21:13

#	Program:	/corina/corina34_cracker 3.40 0067  02.08.2006

@<TRIPOS>MOLECULE
ASD07930706
  46   48    0    0    0
SMALL
NO_CHARGES


@<TRIPOS>ATOM
   1 C1            -0.0178     1.4608     0.0101 C.3     
   2 N2             0.8031    -0.4153    -2.1619 N.2     
   3 N3            -0.8796    -1.7833    -1.2911 N.pl3   
   4 C4            -0.9005    -2.8248    -0.2586 C.3     
   5 C5            -1.2102    -2.1834     1.1010 C.3     
   6 S6             0.0275    -0.8859     1.4156 S.o2    
   7 N7             0.0021    -0.0041     0.0020 N.am    
   8 C8             0.0002    -0.7257    -1.1832 C.2     
   9 C9             0.4646    -3.5132    -0.1997 C.3     
  10 O10           -0.4323     0.0192     2.4099 O.2     
  11 O11            1.3354    -1.4387     1.4687 O.2     
  12 C12           -1.9634    -3.8404    -0.5898 C.ar    
  13 C13           -2.6116    -4.5182     0.4273 C.ar    
  14 C14           -2.2925    -4.0886    -1.9068 C.ar    
  15 C15           -3.2756    -5.0280    -2.2116 C.ar    
  16 C16           -3.9210    -5.7117    -1.1837 C.ar    
  17 C17           -3.5877    -5.4518     0.1305 C.ar    
  18 C18           -3.6340    -5.2987    -3.6261 C.ar    
  19 C19           -2.9930    -4.6183    -4.6605 C.ar    
  20 C20           -4.6129    -6.2417    -3.9396 C.ar    
  21 C21           -4.9124    -6.4591    -5.2874 C.ar    
  22 C22           -4.2258    -5.7299    -6.2593 C.ar    
  23 N23           -3.3044    -4.8519    -5.9193 N.ar    
  24 C24           -5.9085    -7.4160    -5.6653 C.1     
  25 C25           -6.7251    -8.2004    -5.9751 C.1     
  26 C26           -7.7490    -9.1840    -6.3636 C.3     
  27 H27            1.0048     1.8381     0.0023 H       
  28 H28           -0.5450     1.8219    -0.8730 H       
  29 H29           -0.5280     1.8123     0.9069 H       
  30 H30            1.4154     0.3313    -2.0687 H       
  31 H31           -1.4804    -1.8399    -2.0505 H       
  32 H32           -2.2071    -1.7432     1.0811 H       
  33 H33           -1.1573    -2.9394     1.8845 H       
  34 H34            1.2322    -2.7780     0.0418 H       
  35 H35            0.4485    -4.2871     0.5677 H       
  36 H36            0.6857    -3.9650    -1.1667 H       
  37 H37           -2.3540    -4.3177     1.4568 H       
  38 H38           -1.7892    -3.5554    -2.6999 H       
  39 H39           -4.6839    -6.4405    -1.4143 H       
  40 H40           -4.0872    -5.9816     0.9281 H       
  41 H41           -2.2310    -3.8895    -4.4268 H       
  42 H42           -5.1251    -6.7891    -3.1622 H       
  43 H43           -4.4495    -5.8907    -7.3036 H       
  44 H44           -7.8363    -9.2079    -7.4499 H       
  45 H45           -7.4614   -10.1707    -6.0005 H       
  46 H46           -8.7076    -8.9019    -5.9282 H       
@<TRIPOS>BOND
   1    1    7 1
   2    1   27 1
   3    1   28 1
   4    1   29 1
   5    2    8 2
   6    2   30 1
   7    3    4 1
   8    3    8 1
   9    3   31 1
  10    4    5 1
  11    4    9 1
  12    4   12 1
  13    5    6 1
  14    5   32 1
  15    5   33 1
  16    6    7 am
  17    6   10 2
  18    6   11 2
  19    7    8 1
  20    9   34 1
  21    9   35 1
  22    9   36 1
  23   12   14 ar
  24   12   13 ar
  25   13   17 ar
  26   13   37 1
  27   14   15 ar
  28   14   38 1
  29   15   16 ar
  30   15   18 1
  31   16   17 ar
  32   16   39 1
  33   17   40 1
  34   18   19 ar
  35   18   20 ar
  36   19   23 ar
  37   19   41 1
  38   20   21 ar
  39   20   42 1
  40   21   22 ar
  41   21   24 1
  42   22   23 ar
  43   22   43 1
  44   24   25 3
  45   25   26 1
  46   26   44 1
  47   26   45 1
  48   26   46 1

#	End of record

