#	Name: ASD03091517
#	Creating user name:	WinNT
#	Creation time:	15. 06. 2019 20:30

#	Modifying user name:	WinNT
#	Modification time:	15. 06. 2019 20:30

#	Program:	/corina/corina34_cracker 3.40 0067  02.08.2006

@<TRIPOS>MOLECULE
ASD03091517
  40   42    0    0    0
SMALL
NO_CHARGES


@<TRIPOS>ATOM
   1 Cl1            0.0000     0.0000     0.0000 Cl      
   2 H2             0.0000     1.3700     0.0000 H       
   3 C3            13.6937    12.0171     6.5901 C.ar    
   4 C4            13.7128    10.6100     6.5823 C.ar    
   5 C5            14.9359     9.9493     6.5675 C.ar    
   6 C6            16.1074    10.6747     6.5607 C.ar    
   7 C7            16.0827    12.0628     6.5683 C.ar    
   8 C8            14.8928    12.7339     6.5825 C.ar    
   9 O9            12.4344    10.1853     6.5922 O.3     
  10 C10           11.5808    11.2305     6.6060 C.2     
  11 C11           12.2808    12.3942     6.6114 C.2     
  12 C12           10.1149    11.1251     6.6186 C.2     
  13 O13            9.4328    12.1324     6.6302 O.2     
  14 N14            9.5263     9.9127     6.6174 N.am    
  15 N15            6.8344     8.6536     8.4046 N.3     
  16 C16            7.5573     9.8887     8.0725 C.3     
  17 C17            8.0651     9.8077     6.6300 C.3     
  18 C18            7.6414     8.4608     6.0309 C.3     
  19 C19            6.1116     8.3616     6.0835 C.3     
  20 C20            5.6580     8.4820     7.5410 C.3     
  21 C21            7.7213     7.4848     8.3235 C.3     
  22 C22            8.2344     7.3357     6.8885 C.3     
  23 H23           14.9678     8.8697     6.5618 H       
  24 H24           17.0555    10.1576     6.5495 H       
  25 H25           17.0104    12.6158     6.5628 H       
  26 H26           14.8792    13.8138     6.5887 H       
  27 H27           11.8760    13.3954     6.6223 H       
  28 H28           10.0702     9.1096     6.6082 H       
  29 H29            6.8861    10.7414     8.1744 H       
  30 H30            8.4030    10.0083     8.7496 H       
  31 H31            7.6336    10.6197     6.0448 H       
  32 H32            7.9868     8.3838     5.0000 H       
  33 H33            5.6729     9.1686     5.4966 H       
  34 H34            5.7939     7.4000     5.6803 H       
  35 H35            5.1226     7.5779     7.8312 H       
  36 H36            5.0000     9.3445     7.6471 H       
  37 H37            8.5655     7.6213     8.9993 H       
  38 H38            7.1690     6.5889     8.6072 H       
  39 H39            7.9252     6.3700     6.4886 H       
  40 H40            9.3222     7.4050     6.8806 H       
@<TRIPOS>BOND
   1    1    2 1
   2    3    4 ar
   3    3    8 ar
   4    3   11 1
   5    4    5 ar
   6    4    9 1
   7    5    6 ar
   8    5   23 1
   9    6    7 ar
  10    6   24 1
  11    7    8 ar
  12    7   25 1
  13    8   26 1
  14    9   10 1
  15   10   11 2
  16   10   12 1
  17   11   27 1
  18   12   13 2
  19   12   14 am
  20   14   17 1
  21   14   28 1
  22   15   16 1
  23   15   20 1
  24   15   21 1
  25   16   17 1
  26   16   29 1
  27   16   30 1
  28   17   18 1
  29   17   31 1
  30   18   19 1
  31   18   22 1
  32   18   32 1
  33   19   20 1
  34   19   33 1
  35   19   34 1
  36   20   35 1
  37   20   36 1
  38   21   22 1
  39   21   37 1
  40   21   38 1
  41   22   39 1
  42   22   40 1

#	End of record

