#	Name: ASD05380041
#	Creating user name:	WinNT
#	Creation time:	15. 06. 2019 20:59

#	Modifying user name:	WinNT
#	Modification time:	15. 06. 2019 20:59

#	Program:	/corina/corina34_cracker 3.40 0067  02.08.2006

@<TRIPOS>MOLECULE
ASD05380041
  78   83    0    0    0
SMALL
NO_CHARGES


@<TRIPOS>ATOM
   1 C1             0.0225     1.7593    -0.1388 C.ar    
   2 C2             0.2195     0.3605    -0.1714 C.ar    
   3 C3             1.1060     2.6205    -0.2969 C.ar    
   4 C4             2.3671     2.0978    -0.4848 C.ar    
   5 C5             2.5642     0.7238    -0.5179 C.ar    
   6 C6             1.5068    -0.1447    -0.3627 C.ar    
   7 C7             0.9004     4.1131    -0.2631 C.3     
   8 N8            -0.8503    -0.4587    -0.0147 N.2     
   9 C9            -2.0473     0.0114     0.1640 C.2     
  10 N10           -2.3291     1.3417     0.2091 N.am    
  11 C11           -1.3440     2.2594     0.0709 C.2     
  12 C12           -3.6497     1.7651     0.4055 C.ar    
  13 C13           -4.5934     1.5890    -0.5978 C.ar    
  14 C14           -4.0192     2.3568     1.6062 C.ar    
  15 C15           -5.3223     2.7729     1.7970 C.ar    
  16 C16           -6.2586     2.6004     0.7942 C.ar    
  17 C17           -5.8948     2.0072    -0.4008 C.ar    
  18 C18           -3.1823    -0.9661     0.3295 C.3     
  19 N19           -2.9224    -2.1580    -0.4818 N.pl3   
  20 C20           -1.7899    -2.9186    -0.2509 C.ar    
  21 N21           -0.9288    -2.5811     0.7026 N.ar    
  22 O22           -1.5816     3.4527     0.1092 O.2     
  23 C23           -1.5289    -4.0682    -1.0163 C.ar    
  24 C24           -0.3644    -4.8030    -0.7385 C.ar    
  25 N25            0.4459    -4.3905     0.2311 N.ar    
  26 C26            0.1596    -3.3048     0.9312 C.ar    
  27 N27           -2.1654    -4.6979    -2.0344 N.2     
  28 C28           -1.4822    -5.7463    -2.3897 C.2     
  29 N29           -0.3612    -5.8548    -1.6194 N.pl3   
  30 C30           -3.2998    -1.3668     1.8014 C.3     
  31 C31           -4.5273    -2.2605     1.9902 C.3     
  32 C32           -4.6448    -2.6611     3.4622 C.3     
  33 C33           -5.8722    -3.5548     3.6510 C.3     
  34 N34           -5.9848    -3.9384     5.0604 N.am    
  35 C35           -6.9980    -4.7299     5.4646 C.2     
  36 O36           -7.1014    -5.0824     6.7598 O.3     
  37 O37           -7.8182    -5.1253     4.6599 O.2     
  38 C38           -8.2178    -5.9368     7.1233 C.3     
  39 C39           -8.1699    -6.2239     8.6020 C.ar    
  40 C40           -8.8204    -5.3877     9.4899 C.ar    
  41 C41           -8.7765    -5.6511    10.8462 C.ar    
  42 C42           -8.0824    -6.7509    11.3146 C.ar    
  43 C43           -7.4326    -7.5877    10.4266 C.ar    
  44 C44           -7.4802    -7.3268     9.0699 C.ar    
  45 N45            1.0262    -2.9098     1.9371 N.pl3   
  46 H46            3.2093     2.7625    -0.6077 H       
  47 H47            3.5592     0.3312    -0.6669 H       
  48 H48            1.6725    -1.2115    -0.3895 H       
  49 H49            0.8844     4.4543     0.7719 H       
  50 H50            1.7152     4.6042    -0.7951 H       
  51 H51           -0.0471     4.3602    -0.7419 H       
  52 H52           -4.3098     1.1258    -1.5313 H       
  53 H53           -3.2886     2.4911     2.3901 H       
  54 H54           -5.6104     3.2331     2.7306 H       
  55 H55           -7.2771     2.9260     0.9461 H       
  56 H56           -6.6283     1.8743    -1.1824 H       
  57 H57           -4.1128    -0.5010     0.0041 H       
  58 H58           -3.5443    -2.4140    -1.1808 H       
  59 H59           -1.7611    -6.4301    -3.1778 H       
  60 H60            0.3143    -6.5480    -1.6832 H       
  61 H61           -2.4045    -1.9107     2.1025 H       
  62 H62           -3.4044    -0.4716     2.4144 H       
  63 H63           -5.4225    -1.7165     1.6891 H       
  64 H64           -4.4227    -3.1557     1.3773 H       
  65 H65           -3.7495    -3.2050     3.7633 H       
  66 H66           -4.7494    -1.7659     4.0752 H       
  67 H67           -6.7675    -3.0108     3.3499 H       
  68 H68           -5.7676    -4.4500     3.0381 H       
  69 H69           -5.3300    -3.6227     5.7028 H       
  70 H70           -9.1541    -5.4340     6.8810 H       
  71 H71           -8.1542    -6.8732     6.5691 H       
  72 H72           -9.3627    -4.5284     9.1240 H       
  73 H73           -9.2841    -4.9973    11.5399 H       
  74 H74           -8.0475    -6.9563    12.3743 H       
  75 H75           -6.8901    -8.4468    10.7925 H       
  76 H76           -6.9726    -7.9805     8.3761 H       
  77 H77            0.8326    -2.1163     2.4602 H       
  78 H78            1.8268    -3.4268     2.1183 H       
@<TRIPOS>BOND
   1    1    2 ar
   2    1    3 ar
   3    1   11 1
   4    2    8 1
   5    2    6 ar
   6    3    4 ar
   7    3    7 1
   8    4    5 ar
   9    4   46 1
  10    5    6 ar
  11    5   47 1
  12    6   48 1
  13    7   49 1
  14    7   50 1
  15    7   51 1
  16    8    9 2
  17    9   10 1
  18    9   18 1
  19   10   11 am
  20   10   12 1
  21   11   22 2
  22   12   13 ar
  23   12   14 ar
  24   13   17 ar
  25   13   52 1
  26   14   15 ar
  27   14   53 1
  28   15   16 ar
  29   15   54 1
  30   16   17 ar
  31   16   55 1
  32   17   56 1
  33   18   19 1
  34   18   30 1
  35   18   57 1
  36   19   20 1
  37   19   58 1
  38   20   21 ar
  39   20   23 ar
  40   21   26 ar
  41   23   24 ar
  42   23   27 1
  43   24   25 ar
  44   24   29 1
  45   25   26 ar
  46   26   45 1
  47   27   28 2
  48   28   29 1
  49   28   59 1
  50   29   60 1
  51   30   31 1
  52   30   61 1
  53   30   62 1
  54   31   32 1
  55   31   63 1
  56   31   64 1
  57   32   33 1
  58   32   65 1
  59   32   66 1
  60   33   34 1
  61   33   67 1
  62   33   68 1
  63   34   35 am
  64   34   69 1
  65   35   36 1
  66   35   37 2
  67   36   38 1
  68   38   39 1
  69   38   70 1
  70   38   71 1
  71   39   40 ar
  72   39   44 ar
  73   40   41 ar
  74   40   72 1
  75   41   42 ar
  76   41   73 1
  77   42   43 ar
  78   42   74 1
  79   43   44 ar
  80   43   75 1
  81   44   76 1
  82   45   77 1
  83   45   78 1

#	End of record

