#	Name: ASD05130108
#	Creating user name:	WinNT
#	Creation time:	15. 06. 2019 20:56

#	Modifying user name:	WinNT
#	Modification time:	15. 06. 2019 20:56

#	Program:	/corina/corina34_cracker 3.40 0067  02.08.2006

@<TRIPOS>MOLECULE
ASD05130108
  74   78    0    0    0
SMALL
NO_CHARGES


@<TRIPOS>ATOM
   1 N1            -0.1617     1.5506     0.1048 N.am    
   2 C2             0.0497     0.4223     0.8111 C.2     
   3 O3             1.1164     0.2436     1.3665 O.2     
   4 N4            -0.9215    -0.5078     0.9017 N.am    
   5 C5            -0.6672    -1.7245     1.5445 C.ar    
   6 C6            -1.6788    -2.3638     2.2495 C.ar    
   7 C7            -1.4248    -3.5646     2.8824 C.ar    
   8 C8            -0.1646    -4.1304     2.8151 C.ar    
   9 C9             0.8446    -3.4963     2.1145 C.ar    
  10 C10            0.5953    -2.2980     1.4740 C.ar    
  11 C11           -2.5218    -4.2589     3.6476 C.3     
  12 N12           -3.2465    -5.1672     2.7488 N.3     
  13 C13           -4.1633    -6.0336     3.5028 C.3     
  14 C14           -4.9548    -6.9067     2.5262 C.3     
  15 N15           -4.0213    -7.7067     1.7212 N.3     
  16 C16           -3.1045    -6.8403     0.9672 C.3     
  17 C17           -2.3130    -5.9672     1.9437 C.3     
  18 C18           -4.7460    -8.6149     0.8224 C.3     
  19 C19            0.8132     2.5568     0.0836 C.ar    
  20 C20            0.4379     3.8859    -0.0880 C.ar    
  21 C21            1.3977     4.8822    -0.1094 C.ar    
  22 C22            2.7334     4.5628     0.0399 C.ar    
  23 C23            3.1175     3.2327     0.2124 C.ar    
  24 C24            2.1501     2.2293     0.2392 C.ar    
  25 F25           -0.8669     4.2041    -0.2345 F       
  26 N26            6.5389     2.8466     1.7832 N.am    
  27 C27            5.2366     3.1602     1.6368 C.2     
  28 C28            4.5497     2.8880     0.3722 C.2     
  29 C29            5.2389     2.3129    -0.6604 C.2     
  30 C30            6.6058     1.9929    -0.4821 C.ar    
  31 C31            7.3497     1.4040    -1.5120 C.ar    
  32 N32            8.6192     1.1128    -1.3299 N.ar    
  33 C33            9.2447     1.3588    -0.1836 C.ar    
  34 C34            8.5825     1.9402     0.8884 C.ar    
  35 C35            7.2390     2.2682     0.7496 C.ar    
  36 O36            4.6283     3.6719     2.5598 O.2     
  37 N37           10.5858     1.0274    -0.0558 N.pl3   
  38 C38           11.2892     1.2923     1.2016 C.3     
  39 C39            7.2162     3.1290     3.0512 C.3     
  40 C40            7.0827     1.9211     3.9808 C.3     
  41 Br41           4.0412     5.9283     0.0098 Br      
  42 H42           -0.9869     1.6644    -0.3920 H       
  43 H43           -1.7967    -0.3339     0.5213 H       
  44 H44           -2.6629    -1.9221     2.3030 H       
  45 H45            0.0316    -5.0695     3.3112 H       
  46 H46            1.8278    -3.9404     2.0644 H       
  47 H47            1.3829    -1.8054     0.9232 H       
  48 H48           -2.0872    -4.8300     4.4680 H       
  49 H49           -3.2121    -3.5162     4.0475 H       
  50 H50           -3.5902    -6.6699     4.1771 H       
  51 H51           -4.8524    -5.4180     4.0809 H       
  52 H52           -5.6146    -7.5706     3.0847 H       
  53 H53           -5.5489    -6.2711     1.8696 H       
  54 H54           -2.4154    -7.4558     0.3890 H       
  55 H55           -3.6776    -6.2039     0.2928 H       
  56 H56           -1.6532    -5.3032     1.3852 H       
  57 H57           -1.7189    -6.6028     2.6004 H       
  58 H58           -5.3776    -8.0337     0.1505 H       
  59 H59           -4.0314    -9.1949     0.2384 H       
  60 H60           -5.3668    -9.2901     1.4113 H       
  61 H61            1.1020     5.9123    -0.2436 H       
  62 H62            2.4426     1.1987     0.3767 H       
  63 H63            4.7463     2.1057    -1.5989 H       
  64 H64            6.8789     1.1876    -2.4596 H       
  65 H65            9.1025     2.1348     1.8148 H       
  66 H66           11.0577     0.6203    -0.7991 H       
  67 H67           10.8047     0.7461     2.0110 H       
  68 H68           12.3259     0.9673     1.1135 H       
  69 H69           11.2604     2.3606     1.4160 H       
  70 H70            8.2713     3.3278     2.8631 H       
  71 H71            6.7602     4.0008     3.5204 H       
  72 H72            7.5866     2.1312     4.9242 H       
  73 H73            6.0276     1.7223     4.1688 H       
  74 H74            7.5387     1.0494     3.5115 H       
@<TRIPOS>BOND
   1    1    2 am
   2    1   19 1
   3    1   42 1
   4    2    3 2
   5    2    4 am
   6    4    5 1
   7    4   43 1
   8    5    6 ar
   9    5   10 ar
  10    6    7 ar
  11    6   44 1
  12    7    8 ar
  13    7   11 1
  14    8    9 ar
  15    8   45 1
  16    9   10 ar
  17    9   46 1
  18   10   47 1
  19   11   12 1
  20   11   48 1
  21   11   49 1
  22   12   13 1
  23   12   17 1
  24   13   14 1
  25   13   50 1
  26   13   51 1
  27   14   15 1
  28   14   52 1
  29   14   53 1
  30   15   16 1
  31   15   18 1
  32   16   17 1
  33   16   54 1
  34   16   55 1
  35   17   56 1
  36   17   57 1
  37   18   58 1
  38   18   59 1
  39   18   60 1
  40   19   20 ar
  41   19   24 ar
  42   20   21 ar
  43   20   25 1
  44   21   22 ar
  45   21   61 1
  46   22   23 ar
  47   22   41 1
  48   23   24 ar
  49   23   28 1
  50   24   62 1
  51   26   27 am
  52   26   35 1
  53   26   39 1
  54   27   28 1
  55   27   36 2
  56   28   29 2
  57   29   30 1
  58   29   63 1
  59   30   31 ar
  60   30   35 ar
  61   31   32 ar
  62   31   64 1
  63   32   33 ar
  64   33   34 ar
  65   33   37 1
  66   34   35 ar
  67   34   65 1
  68   37   38 1
  69   37   66 1
  70   38   67 1
  71   38   68 1
  72   38   69 1
  73   39   40 1
  74   39   70 1
  75   39   71 1
  76   40   72 1
  77   40   73 1
  78   40   74 1

#	End of record

