#	Name: ASD01913183
#	Creating user name:	WinNT
#	Creation time:	15. 06. 2019 20:01

#	Modifying user name:	WinNT
#	Modification time:	15. 06. 2019 20:01

#	Program:	/corina/corina34_cracker 3.40 0067  02.08.2006

@<TRIPOS>MOLECULE
ASD01913183
  56   59    0    0    0
SMALL
NO_CHARGES


@<TRIPOS>ATOM
   1 C1            -0.0020     1.4627    -0.0065 C.3     
   2 N2             0.0026    -0.0040     0.0014 N.am    
   3 C3             0.9420    -0.6713     0.9180 C.3     
   4 C4             2.3608    -0.3253     0.4691 C.3     
   5 C5             2.4977     1.1532     0.2152 C.ar    
   6 C6             3.7810     1.6881     0.2113 C.ar    
   7 C7             3.9814     3.0352    -0.0232 C.ar    
   8 C8             2.8879     3.8638    -0.2589 C.ar    
   9 C9             1.6130     3.3292    -0.2512 C.ar    
  10 C10            1.4166     1.9755    -0.0107 C.ar    
  11 C11           -0.8199    -0.7121    -0.7977 C.2     
  12 C12           -1.8406    -0.0178    -1.6074 C.ar    
  13 C13           -2.1708    -0.4979    -2.8740 C.ar    
  14 C14           -3.1351     0.1612    -3.6333 C.ar    
  15 C15           -3.7673     1.3044    -3.1168 C.ar    
  16 C16           -3.4303     1.7733    -1.8553 C.ar    
  17 C17           -2.4806     1.1181    -1.1017 C.ar    
  18 O18           -0.7213    -1.9227    -0.8516 O.2     
  19 C19           -3.4802    -0.3245    -4.9354 C.1     
  20 C20           -3.7631    -0.7227    -6.0030 C.1     
  21 C21           -4.1082    -1.2084    -7.3051 C.ar    
  22 C22           -5.0767    -0.5413    -8.0604 C.ar    
  23 C23           -5.3983    -1.0233    -9.3158 C.ar    
  24 C24           -4.7432    -2.1568    -9.7793 C.ar    
  25 C25           -3.7949    -2.7683    -8.9802 C.ar    
  26 N26           -3.5011    -2.2878    -7.7894 N.ar    
  27 O27           -4.7067     1.9499    -3.8515 O.3     
  28 C28           -5.3085     3.1053    -3.2642 C.3     
  29 O29            3.0726     5.1903    -0.4948 O.3     
  30 C30            1.9025     5.9767    -0.7282 C.3     
  31 O31            5.2406     3.5489    -0.0233 O.3     
  32 C32            6.3129     2.6379     0.2265 C.3     
  33 H33           -0.5191     1.8190    -0.8975 H       
  34 H34           -0.5172     1.8285     0.8817 H       
  35 H35            0.7800    -0.3156     1.9355 H       
  36 H36            0.7947    -1.7505     0.8759 H       
  37 H37            3.0651    -0.6222     1.2462 H       
  38 H38            2.5894    -0.8690    -0.4475 H       
  39 H39            4.6291     1.0448     0.3936 H       
  40 H40            0.7626     3.9697    -0.4332 H       
  41 H41           -1.6806    -1.3772    -3.2652 H       
  42 H42           -3.9175     2.6526    -1.4605 H       
  43 H43           -2.2266     1.4858    -0.1185 H       
  44 H44           -5.5671     0.3378    -7.6690 H       
  45 H45           -6.1428    -0.5294    -9.9225 H       
  46 H46           -4.9729    -2.5575   -10.7556 H       
  47 H47           -3.2846    -3.6499    -9.3393 H       
  48 H48           -4.5394     3.8485    -3.0540 H       
  49 H49           -6.0400     3.5248    -3.9549 H       
  50 H50           -5.8053     2.8239    -2.3357 H       
  51 H51            2.1903     7.0136    -0.9021 H       
  52 H52            1.3761     5.5942    -1.6027 H       
  53 H53            1.2485     5.9223     0.1421 H       
  54 H54            6.1821     2.1834     1.2085 H       
  55 H55            6.3140     1.8599    -0.5368 H       
  56 H56            7.2606     3.1758     0.1984 H       
@<TRIPOS>BOND
   1    1    2 1
   2    1   10 1
   3    1   33 1
   4    1   34 1
   5    2    3 1
   6    2   11 am
   7    3    4 1
   8    3   35 1
   9    3   36 1
  10    4    5 1
  11    4   37 1
  12    4   38 1
  13    5    6 ar
  14    5   10 ar
  15    6    7 ar
  16    6   39 1
  17    7    8 ar
  18    7   31 1
  19    8    9 ar
  20    8   29 1
  21    9   10 ar
  22    9   40 1
  23   11   12 1
  24   11   18 2
  25   12   13 ar
  26   12   17 ar
  27   13   14 ar
  28   13   41 1
  29   14   15 ar
  30   14   19 1
  31   15   16 ar
  32   15   27 1
  33   16   17 ar
  34   16   42 1
  35   17   43 1
  36   19   20 3
  37   20   21 1
  38   21   22 ar
  39   21   26 ar
  40   22   23 ar
  41   22   44 1
  42   23   24 ar
  43   23   45 1
  44   24   25 ar
  45   24   46 1
  46   25   26 ar
  47   25   47 1
  48   27   28 1
  49   28   48 1
  50   28   49 1
  51   28   50 1
  52   29   30 1
  53   30   51 1
  54   30   52 1
  55   30   53 1
  56   31   32 1
  57   32   54 1
  58   32   55 1
  59   32   56 1

#	End of record

