#	Name: ASD01884206
#	Creating user name:	WinNT
#	Creation time:	15. 06. 2019 19:47

#	Modifying user name:	WinNT
#	Modification time:	15. 06. 2019 19:47

#	Program:	/corina/corina34_cracker 3.40 0067  02.08.2006

@<TRIPOS>MOLECULE
ASD01884206
  35   38    0    0    0
SMALL
NO_CHARGES


@<TRIPOS>ATOM
   1 S1            -0.0219     1.7671     0.0118 S.3     
   2 C2             0.0021    -0.0041     0.0020 C.2     
   3 N3             1.2906    -0.3578    -0.0122 N.am    
   4 C4             2.2520     0.6368    -0.0160 C.ar    
   5 C5             1.7391     1.9358    -0.0042 C.ar    
   6 C6             2.5664     3.0417    -0.0061 C.ar    
   7 C7             3.9490     2.8724    -0.0202 C.ar    
   8 C8             4.4762     1.5807    -0.0322 C.ar    
   9 C9             3.6481     0.4857    -0.0302 C.ar    
  10 O10           -0.9608    -0.7486     0.0076 O.2     
  11 C11            4.8498     4.0509    -0.0230 C.ar    
  12 C12            6.5280     5.3929     1.0547 C.ar    
  13 C13            6.5328     6.2531    -0.0282 C.ar    
  14 C14            5.6975     6.0225    -1.1060 C.ar    
  15 C15            4.8555     4.9259    -1.1098 C.ar    
  16 C16            1.6774    -1.7708    -0.0230 C.3     
  17 C17            1.7987    -2.2553    -1.4692 C.3     
  18 C18            2.3095    -3.6795    -1.6966 C.3     
  19 C19            0.8340    -3.3494    -1.9309 C.3     
  20 F20            3.1072    -3.9075    -2.8230 F       
  21 F21            2.6299    -4.4390    -0.5662 F       
  22 C22            5.6909     4.2926     1.0637 C.ar    
  23 F23            4.0404     4.7018    -2.1637 F       
  24 F24            5.6870     3.4535     2.1226 F       
  25 H25            2.1426     4.0350     0.0029 H       
  26 H26            5.5470     1.4407    -0.0435 H       
  27 H27            4.0763    -0.5057    -0.0392 H       
  28 H28            7.1830     5.5785     1.8931 H       
  29 H29            7.1884     7.1113    -0.0300 H       
  30 H30            5.7062     6.6981    -1.9486 H       
  31 H31            2.6364    -1.8888     0.4814 H       
  32 H32            0.9197    -2.3588     0.4949 H       
  33 H33            2.0846    -1.4959    -2.1970 H       
  34 H34            0.1129    -3.7240    -1.2044 H       
  35 H35            0.4849    -3.3099    -2.9627 H       
@<TRIPOS>BOND
   1    1    2 1
   2    1    5 1
   3    2    3 am
   4    2   10 2
   5    3    4 1
   6    3   16 1
   7    4    5 ar
   8    4    9 ar
   9    5    6 ar
  10    6    7 ar
  11    6   25 1
  12    7    8 ar
  13    7   11 1
  14    8    9 ar
  15    8   26 1
  16    9   27 1
  17   11   22 ar
  18   11   15 ar
  19   12   13 ar
  20   12   22 ar
  21   12   28 1
  22   13   14 ar
  23   13   29 1
  24   14   15 ar
  25   14   30 1
  26   15   23 1
  27   16   17 1
  28   16   31 1
  29   16   32 1
  30   17   18 1
  31   17   19 1
  32   17   33 1
  33   18   19 1
  34   18   20 1
  35   18   21 1
  36   19   34 1
  37   19   35 1
  38   22   24 1

#	End of record

