#	Name: ASD03091283
#	Creating user name:	WinNT
#	Creation time:	15. 06. 2019 20:30

#	Modifying user name:	WinNT
#	Modification time:	15. 06. 2019 20:30

#	Program:	/corina/corina34_cracker 3.40 0067  02.08.2006

@<TRIPOS>MOLECULE
ASD03091283
  59   64    0    0    0
SMALL
NO_CHARGES


@<TRIPOS>ATOM
   1 N1             0.0736     1.1955     0.5704 N.2     
   2 C2             0.0759    -0.0784     0.2757 C.2     
   3 N3             1.1634    -0.7215    -0.2507 N.am    
   4 C4             2.3093    -0.0431    -0.4925 C.2     
   5 C5             2.3297     1.3913    -0.1688 C.ar    
   6 C6             3.4610     2.1756    -0.3817 C.ar    
   7 C7             3.4244     3.5217    -0.0589 C.ar    
   8 C8             2.2667     4.0888     0.4743 C.ar    
   9 C9             1.1504     3.3328     0.6885 C.ar    
  10 C10            1.1591     1.9707     0.3718 C.ar    
  11 O11            3.2861    -0.5992    -0.9599 O.2     
  12 C12           -1.1537    -0.8609     0.5232 C.ar    
  13 C13           -1.7996    -0.7755     1.7550 C.ar    
  14 C14           -2.9585    -1.5162     1.9797 C.ar    
  15 C15           -3.4647    -2.3388     0.9698 C.ar    
  16 C16           -2.8195    -2.4185    -0.2480 C.ar    
  17 C17           -1.6737    -1.6830    -0.4790 C.ar    
  18 C18           -3.6286    -1.4349     3.2426 C.1     
  19 N19           -4.1603    -1.3704     4.2444 N.1     
  20 C20            1.0869    -2.1528    -0.5537 C.3     
  21 C21            1.4897    -2.4994    -1.9967 C.3     
  22 C22            2.2053    -3.7313    -1.4177 C.3     
  23 C23            2.3246    -2.9454    -0.1012 C.3     
  24 N24            6.8524     5.4432    -1.7585 N.3     
  25 C25            6.9724     4.3051    -0.8345 C.3     
  26 C26            5.6729     3.5170    -0.7812 C.3     
  27 N27            4.5543     4.3170    -0.2683 N.3     
  28 C28            4.2533     5.4304    -1.1791 C.3     
  29 C29            4.9823     6.6902    -0.7365 C.3     
  30 C30            6.4709     6.6540    -1.0175 C.3     
  31 C31            6.0438     5.2270    -2.9391 C.3     
  32 C32            4.5777     5.0116    -2.6014 C.3     
  33 H33            4.3581     1.7380    -0.7941 H       
  34 H34            2.2536     5.1401     0.7214 H       
  35 H35            0.2618     3.7859     1.1023 H       
  36 H36           -1.4038    -0.1384     2.5321 H       
  37 H37           -4.3625    -2.9137     1.1425 H       
  38 H38           -3.2149    -3.0557    -1.0252 H       
  39 H39           -1.1764    -1.7466    -1.4356 H       
  40 H40            0.1427    -2.6010    -0.2443 H       
  41 H41            0.6443    -2.7472    -2.6386 H       
  42 H42            2.1662    -1.7733    -2.4476 H       
  43 H43            1.5676    -4.6122    -1.3440 H       
  44 H44            3.1652    -3.9406    -1.8897 H       
  45 H45            3.2293    -2.3412    -0.0339 H       
  46 H46            2.1532    -3.5531     0.7872 H       
  47 H47            7.7756     3.6507    -1.1732 H       
  48 H48            7.2087     4.6758     0.1629 H       
  49 H49            5.4283     3.1712    -1.7856 H       
  50 H50            5.8121     2.6499    -0.1355 H       
  51 H51            3.1818     5.6248    -1.1313 H       
  52 H52            4.5493     7.5452    -1.2557 H       
  53 H53            4.8320     6.8227     0.3350 H       
  54 H54            7.0123     6.6778    -0.0717 H       
  55 H55            6.7437     7.5311    -1.6044 H       
  56 H56            6.1323     6.0954    -3.5920 H       
  57 H57            6.4174     4.3500    -3.4677 H       
  58 H58            4.3376     3.9554    -2.7233 H       
  59 H59            3.9661     5.5941    -3.2905 H       
@<TRIPOS>BOND
   1    1    2 2
   2    1   10 1
   3    2    3 1
   4    2   12 1
   5    3    4 am
   6    3   20 1
   7    4    5 1
   8    4   11 2
   9    5    6 ar
  10    5   10 ar
  11    6    7 ar
  12    6   33 1
  13    7    8 ar
  14    7   27 1
  15    8    9 ar
  16    8   34 1
  17    9   10 ar
  18    9   35 1
  19   12   13 ar
  20   12   17 ar
  21   13   14 ar
  22   13   36 1
  23   14   15 ar
  24   14   18 1
  25   15   16 ar
  26   15   37 1
  27   16   17 ar
  28   16   38 1
  29   17   39 1
  30   18   19 3
  31   20   21 1
  32   20   23 1
  33   20   40 1
  34   21   22 1
  35   21   41 1
  36   21   42 1
  37   22   23 1
  38   22   43 1
  39   22   44 1
  40   23   45 1
  41   23   46 1
  42   24   25 1
  43   24   30 1
  44   24   31 1
  45   25   26 1
  46   25   47 1
  47   25   48 1
  48   26   27 1
  49   26   49 1
  50   26   50 1
  51   27   28 1
  52   28   29 1
  53   28   32 1
  54   28   51 1
  55   29   30 1
  56   29   52 1
  57   29   53 1
  58   30   54 1
  59   30   55 1
  60   31   32 1
  61   31   56 1
  62   31   57 1
  63   32   58 1
  64   32   59 1

#	End of record

