#	Name: ASD01911811
#	Creating user name:	WinNT
#	Creation time:	15. 06. 2019 19:58

#	Modifying user name:	WinNT
#	Modification time:	15. 06. 2019 19:58

#	Program:	/corina/corina34_cracker 3.40 0067  02.08.2006

@<TRIPOS>MOLECULE
ASD01911811
  33   35    0    0    0
SMALL
NO_CHARGES


@<TRIPOS>ATOM
   1 C1             0.1436     0.8410    -1.0252 C.2     
   2 N2             0.0461    -0.3384    -0.3316 N.pl3   
   3 C3             1.2107    -1.0271    -0.0078 C.2     
   4 C4             2.4539    -0.4774    -0.4107 C.2     
   5 C5             2.4524     0.6940    -1.0930 C.2     
   6 N6             1.2998     1.3176    -1.3798 N.2     
   7 C7             0.8727    -2.1572     0.6731 C.2     
   8 C8            -0.5420    -2.1785     0.7795 C.2     
   9 C9            -1.0190    -1.0351     0.1450 C.2     
  10 C10           -1.3501    -3.2116     1.4351 C.2     
  11 O11           -1.6253    -3.1105     2.6154 O.2     
  12 N12           -2.3487    -0.6700     0.0217 N.pl3   
  13 C13           -2.8394     0.4329     0.7280 C.ar    
  14 C14           -4.1903     0.7597     0.6599 C.ar    
  15 C15           -4.6713     1.8503     1.3600 C.ar    
  16 C16           -3.8105     2.6160     2.1267 C.ar    
  17 C17           -2.4675     2.2931     2.1953 C.ar    
  18 C18           -1.9810     1.2007     1.5031 C.ar    
  19 I19           -4.5435     4.2685     3.1855 I       
  20 F20           -5.0303     0.0126    -0.0894 F       
  21 Cl21           1.9694    -3.3504     1.2953 Cl      
  22 O22           -1.7883    -4.2739     0.7291 O.3     
  23 C23           -2.5832    -5.2572     1.4430 C.3     
  24 H24           -0.7554     1.3802    -1.2849 H       
  25 H25            3.3812    -0.9803    -0.1789 H       
  26 H26            3.3888     1.1299    -1.4088 H       
  27 H27           -2.9401    -1.1791    -0.5545 H       
  28 H28           -5.7195     2.1053     1.3082 H       
  29 H29           -1.7987     2.8934     2.7942 H       
  30 H30           -0.9329     0.9470     1.5616 H       
  31 H31           -1.9971    -5.6721     2.2630 H       
  32 H32           -3.4789    -4.7806     1.8412 H       
  33 H33           -2.8702    -6.0572     0.7604 H       
@<TRIPOS>BOND
   1    1    2 1
   2    1    6 2
   3    1   24 1
   4    2    3 1
   5    2    9 1
   6    3    4 1
   7    3    7 2
   8    4    5 2
   9    4   25 1
  10    5    6 1
  11    5   26 1
  12    7    8 1
  13    7   21 1
  14    8    9 2
  15    8   10 1
  16    9   12 1
  17   10   11 2
  18   10   22 1
  19   12   13 1
  20   12   27 1
  21   13   14 ar
  22   13   18 ar
  23   14   15 ar
  24   14   20 1
  25   15   16 ar
  26   15   28 1
  27   16   17 ar
  28   16   19 1
  29   17   18 ar
  30   17   29 1
  31   18   30 1
  32   22   23 1
  33   23   31 1
  34   23   32 1
  35   23   33 1

#	End of record

