#	Name: ASD01320138
#	Creating user name:	WinNT
#	Creation time:	15. 06. 2019 19:16

#	Modifying user name:	WinNT
#	Modification time:	15. 06. 2019 19:16

#	Program:	/corina/corina34_cracker 3.40 0067  02.08.2006

@<TRIPOS>MOLECULE
ASD01320138
  57   60    0    0    0
SMALL
NO_CHARGES


@<TRIPOS>ATOM
   1 Cl1            2.1307     5.2941     1.1129 Cl      
   2 C2             1.3328     0.0569     2.2291 C.ar    
   3 C3             1.9222    -1.2238     2.3892 C.ar    
   4 C4             3.2244    -1.4513     1.9211 C.ar    
   5 C5             3.9193    -0.4222     1.3079 C.ar    
   6 C6             3.3244     0.8493     1.1529 C.ar    
   7 C7             2.0578     1.0849     1.6042 C.ar    
   8 C8             0.0288     0.2780     2.7061 C.ar    
   9 C9            -0.6485    -0.7346     3.3127 C.ar    
  10 C10           -0.0694    -1.9928     3.4704 C.ar    
  11 C11            1.1878    -2.2469     3.0164 C.ar    
  12 C12            5.2901    -0.6554     0.8137 C.2     
  13 N13            5.8948    -1.8390     1.0375 N.am    
  14 C14            7.2557    -2.0706     0.5469 C.3     
  15 O15            5.8740     0.2200     0.2047 O.2     
  16 C16            8.2480    -1.5381     1.5483 C.2     
  17 O17            7.8585    -1.0184     2.5672 O.2     
  18 O18            9.5647    -1.6411     1.3083 O.3     
  19 N19            4.0384     1.8747     0.5334 N.am    
  20 C20            4.0161     3.1192     1.0505 C.2     
  21 N21            4.7822     4.0873     0.5099 N.am    
  22 C22            4.8434     5.3496     1.1122 C.ar    
  23 C23            6.0737     5.9365     1.3738 C.ar    
  24 C24            6.1310     7.1824     1.9684 C.ar    
  25 C25            4.9646     7.8448     2.3034 C.ar    
  26 C26            3.7367     7.2635     2.0444 C.ar    
  27 C27            3.6722     6.0204     1.4443 C.ar    
  28 C28            7.3460     5.2153     1.0101 C.3     
  29 O29            3.3048     3.3684     2.0045 O.2     
  30 C30            7.4767    -3.5493     0.3582 C.ar    
  31 C31            8.1821    -4.0082    -0.7385 C.ar    
  32 C32            8.3849    -5.3646    -0.9117 C.ar    
  33 C33            7.8826    -6.2620     0.0120 C.ar    
  34 C34            7.1781    -5.8030     1.1092 C.ar    
  35 C35            6.9790    -4.4463     1.2847 C.ar    
  36 H36            3.6824    -2.4223     2.0384 H       
  37 H37            1.6129     2.0611     1.4799 H       
  38 H38           -0.4332     1.2475     2.5920 H       
  39 H39           -1.6500    -0.5606     3.6777 H       
  40 H40           -0.6287    -2.7787     3.9561 H       
  41 H41            1.6234    -3.2267     3.1452 H       
  42 H42            5.4290    -2.5374     1.5234 H       
  43 H43            7.3905    -1.5585    -0.4058 H       
  44 H44           10.1625    -1.2850     1.9798 H       
  45 H45            4.5511     1.6923    -0.2696 H       
  46 H46            5.2912     3.9095    -0.2965 H       
  47 H47            7.0881     7.6393     2.1720 H       
  48 H48            5.0125     8.8182     2.7687 H       
  49 H49            2.8274     7.7833     2.3076 H       
  50 H50            7.6387     5.4842    -0.0048 H       
  51 H51            8.1366     5.5009     1.7040 H       
  52 H52            7.1829     4.1391     1.0682 H       
  53 H53            8.5745    -3.3071    -1.4602 H       
  54 H54            8.9353    -5.7232    -1.7689 H       
  55 H55            8.0404    -7.3218    -0.1236 H       
  56 H56            6.7854    -6.5041     1.8307 H       
  57 H57            6.4318    -4.0875     2.1438 H       
@<TRIPOS>BOND
   1    1   27 1
   2    2    3 ar
   3    2    7 ar
   4    2    8 ar
   5    3    4 ar
   6    3   11 ar
   7    4    5 ar
   8    4   36 1
   9    5    6 ar
  10    5   12 1
  11    6    7 ar
  12    6   19 1
  13    7   37 1
  14    8    9 ar
  15    8   38 1
  16    9   10 ar
  17    9   39 1
  18   10   11 ar
  19   10   40 1
  20   11   41 1
  21   12   13 am
  22   12   15 2
  23   13   14 1
  24   13   42 1
  25   14   16 1
  26   14   30 1
  27   14   43 1
  28   16   17 2
  29   16   18 1
  30   18   44 1
  31   19   20 am
  32   19   45 1
  33   20   21 am
  34   20   29 2
  35   21   22 1
  36   21   46 1
  37   22   23 ar
  38   22   27 ar
  39   23   24 ar
  40   23   28 1
  41   24   25 ar
  42   24   47 1
  43   25   26 ar
  44   25   48 1
  45   26   27 ar
  46   26   49 1
  47   28   50 1
  48   28   51 1
  49   28   52 1
  50   30   31 ar
  51   30   35 ar
  52   31   32 ar
  53   31   53 1
  54   32   33 ar
  55   32   54 1
  56   33   34 ar
  57   33   55 1
  58   34   35 ar
  59   34   56 1
  60   35   57 1

#	End of record

