#	Name: ASD04880405
#	Creating user name:	WinNT
#	Creation time:	15. 06. 2019 20:53

#	Modifying user name:	WinNT
#	Modification time:	15. 06. 2019 20:53

#	Program:	/corina/corina34_cracker 3.40 0067  02.08.2006

@<TRIPOS>MOLECULE
ASD04880405
  47   49    0    0    0
SMALL
NO_CHARGES


@<TRIPOS>ATOM
   1 C1            -0.0141     1.4066    -0.2326 C.ar    
   2 C2             0.0078     0.0140    -0.2636 C.ar    
   3 C3            -1.1795    -0.7029    -0.2284 C.ar    
   4 C4            -2.3871    -0.0404    -0.1628 C.ar    
   5 C5            -2.4167     1.3562    -0.1314 C.ar    
   6 C6            -1.2204     2.0777    -0.1611 C.ar    
   7 O7             1.1519     2.1058    -0.2669 O.3     
   8 O8             1.1954    -0.6441    -0.3291 O.3     
   9 C9             1.1451    -2.0720    -0.3578 C.3     
  10 C10            1.0549     3.5311    -0.2319 C.3     
  11 C11           -3.7065     2.0666    -0.0614 C.2     
  12 C12           -5.0656     1.4053    -0.0181 C.3     
  13 N13           -3.8492     3.3466    -0.0220 N.2     
  14 N14           -5.1753     3.7697     0.0424 N.am    
  15 C15           -6.0520     2.5879     0.0498 C.3     
  16 C16           -6.9727     2.5928    -1.1721 C.3     
  17 C17           -6.8699     2.5324     1.3417 C.3     
  18 C18           -5.5874     5.0519     0.0926 C.2     
  19 O19           -6.7745     5.3114     0.0436 O.2     
  20 C20           -4.5977     6.1415     0.2072 C.ar    
  21 C21           -3.2474     5.8452     0.4041 C.ar    
  22 C22           -2.3282     6.8676     0.5103 C.ar    
  23 C23           -2.7397     8.1863     0.4229 C.ar    
  24 C24           -4.0744     8.4900     0.2281 C.ar    
  25 C25           -5.0071     7.4759     0.1134 C.ar    
  26 F26           -6.3112     7.7728    -0.0774 F       
  27 H27           -1.1579    -1.7824    -0.2526 H       
  28 H28           -3.3099    -0.6009    -0.1362 H       
  29 H29           -1.2387     3.1573    -0.1370 H       
  30 H30            2.1584    -2.4702    -0.4102 H       
  31 H31            0.6577    -2.4366     0.5463 H       
  32 H32            0.5810    -2.3982    -1.2316 H       
  33 H33            2.0546     3.9642    -0.2649 H       
  34 H34            0.4804     3.8774    -1.0910 H       
  35 H35            0.5557     3.8389     0.6869 H       
  36 H36           -5.2340     0.8183    -0.9210 H       
  37 H37           -5.1579     0.7789     0.8691 H       
  38 H38           -6.3706     2.6062    -2.0806 H       
  39 H39           -7.5950     1.6980    -1.1618 H       
  40 H40           -7.6084     3.4778    -1.1445 H       
  41 H41           -7.5040     3.4165     1.4085 H       
  42 H42           -7.4927     1.6379     1.3393 H       
  43 H43           -6.1956     2.5034     2.1976 H       
  44 H44           -2.9236     4.8172     0.4734 H       
  45 H45           -1.2838     6.6387     0.6625 H       
  46 H46           -2.0145     8.9821     0.5076 H       
  47 H47           -4.3883     9.5212     0.1612 H       
@<TRIPOS>BOND
   1    1    2 ar
   2    1    7 1
   3    1    6 ar
   4    2    3 ar
   5    2    8 1
   6    3    4 ar
   7    3   27 1
   8    4    5 ar
   9    4   28 1
  10    5    6 ar
  11    5   11 1
  12    6   29 1
  13    7   10 1
  14    8    9 1
  15    9   30 1
  16    9   31 1
  17    9   32 1
  18   10   33 1
  19   10   34 1
  20   10   35 1
  21   11   12 1
  22   11   13 2
  23   12   15 1
  24   12   36 1
  25   12   37 1
  26   13   14 1
  27   14   15 1
  28   14   18 am
  29   15   16 1
  30   15   17 1
  31   16   38 1
  32   16   39 1
  33   16   40 1
  34   17   41 1
  35   17   42 1
  36   17   43 1
  37   18   19 2
  38   18   20 1
  39   20   21 ar
  40   20   25 ar
  41   21   22 ar
  42   21   44 1
  43   22   23 ar
  44   22   45 1
  45   23   24 ar
  46   23   46 1
  47   24   25 ar
  48   24   47 1
  49   25   26 1

#	End of record

