#	Name: ASD01901056
#	Creating user name:	WinNT
#	Creation time:	15. 06. 2019 19:53

#	Modifying user name:	WinNT
#	Modification time:	15. 06. 2019 19:53

#	Program:	/corina/corina34_cracker 3.40 0067  02.08.2006

@<TRIPOS>MOLECULE
ASD01901056
  39   41    0    0    0
SMALL
NO_CHARGES


@<TRIPOS>ATOM
   1 C1             0.5345     1.2310     0.5054 C.ar    
   2 N2             0.4715    -0.0823     0.4528 N.ar    
   3 C3            -0.3992    -0.7521     1.2041 C.ar    
   4 C4            -1.2476    -0.0384     2.0518 C.ar    
   5 C5            -1.1438     1.3450     2.0725 C.ar    
   6 N6            -0.2522     1.9357     1.2952 N.ar    
   7 C7            -0.4672    -2.2333     1.1411 C.2     
   8 O8            -1.2659    -2.8346     1.8314 O.2     
   9 N9             0.3571    -2.9113     0.3182 N.am    
  10 C10            0.3601    -4.3095     0.3282 C.ar    
  11 C11           -0.8246    -5.0066     0.5281 C.ar    
  12 C12           -0.8182    -6.3876     0.5369 C.ar    
  13 C13            0.3658    -7.0764     0.3475 C.ar    
  14 C14            1.5471    -6.3854     0.1487 C.ar    
  15 C15            1.5467    -5.0044     0.1325 C.ar    
  16 S16            0.3695    -8.8383     0.3601 S.o2    
  17 O17            1.6918    -9.2344     0.6975 O.2     
  18 O18           -0.7745    -9.2367     1.1028 O.2     
  19 N19            0.1141    -9.3402    -1.1973 N.am    
  20 C20            1.0153    -8.9821    -2.2035 C.ar    
  21 C21            0.5544    -8.7062    -3.4858 C.ar    
  22 C22            1.4486    -8.3525    -4.4780 C.ar    
  23 C23            2.8004    -8.2730    -4.1963 C.ar    
  24 C24            3.2615    -8.5473    -2.9221 C.ar    
  25 C25            2.3724    -8.8955    -1.9236 C.ar    
  26 Cl26          -1.1421    -8.8064    -3.8400 Cl      
  27 H27            1.2545     1.7465    -0.1128 H       
  28 H28           -1.9663    -0.5496     2.6750 H       
  29 H29           -1.7833     1.9319     2.7152 H       
  30 H30            0.9484    -2.4294    -0.2810 H       
  31 H31           -1.7495    -4.4693     0.6768 H       
  32 H32           -1.7390    -6.9302     0.6923 H       
  33 H33            2.4702    -6.9263     0.0017 H       
  34 H34            2.4688    -4.4654    -0.0276 H       
  35 H35           -0.6611    -9.8827    -1.4110 H       
  36 H36            1.0917    -8.1383    -5.4746 H       
  37 H37            3.4973    -7.9964    -4.9735 H       
  38 H38            4.3178    -8.4846    -2.7059 H       
  39 H39            2.7333    -9.1049    -0.9274 H       
@<TRIPOS>BOND
   1    1    2 ar
   2    1    6 ar
   3    1   27 1
   4    2    3 ar
   5    3    4 ar
   6    3    7 1
   7    4    5 ar
   8    4   28 1
   9    5    6 ar
  10    5   29 1
  11    7    8 2
  12    7    9 am
  13    9   10 1
  14    9   30 1
  15   10   11 ar
  16   10   15 ar
  17   11   12 ar
  18   11   31 1
  19   12   13 ar
  20   12   32 1
  21   13   14 ar
  22   13   16 1
  23   14   15 ar
  24   14   33 1
  25   15   34 1
  26   16   17 2
  27   16   18 2
  28   16   19 am
  29   19   20 1
  30   19   35 1
  31   20   21 ar
  32   20   25 ar
  33   21   22 ar
  34   21   26 1
  35   22   23 ar
  36   22   36 1
  37   23   24 ar
  38   23   37 1
  39   24   25 ar
  40   24   38 1
  41   25   39 1

#	End of record

