#	Name: ASD03910029
#	Creating user name:	WinNT
#	Creation time:	15. 06. 2019 20:47

#	Modifying user name:	WinNT
#	Modification time:	15. 06. 2019 20:47

#	Program:	/corina/corina34_cracker 3.40 0067  02.08.2006

@<TRIPOS>MOLECULE
ASD03910029
  55   57    0    0    0
SMALL
NO_CHARGES


@<TRIPOS>ATOM
   1 C1             1.0270     0.0560     1.6020 C.ar    
   2 C2             1.9294     0.8577     2.2768 C.ar    
   3 C3             1.5201     2.0648     2.8129 C.ar    
   4 C4             0.2079     2.4733     2.6762 C.ar    
   5 C5            -0.7008     1.6706     1.9992 C.ar    
   6 C6            -0.2851     0.4616     1.4566 C.ar    
   7 N7            -2.0310     2.0815     1.8590 N.am    
   8 C8            -2.3174     3.3853     1.6729 C.2     
   9 C9            -3.7392     3.8157     1.4194 C.3     
  10 O10           -1.4309     4.2122     1.7095 O.2     
  11 C11           -3.7879     5.3119     1.2464 C.ar    
  12 C12           -3.6396     5.8665    -0.0114 C.ar    
  13 C13           -3.6839     7.2377    -0.1726 C.ar    
  14 C14           -3.8773     8.0586     0.9289 C.ar    
  15 C15           -4.0258     7.4998     2.1900 C.ar    
  16 C16           -3.9864     6.1276     2.3451 C.ar    
  17 O17           -3.9207     9.4079     0.7730 O.3     
  18 C18           -4.1832    10.1879     1.9413 C.3     
  19 C19           -3.1529     9.8754     2.9957 C.2     
  20 C20            1.4774    -1.2588     1.0194 C.3     
  21 C21            2.5068     2.9354     3.5475 C.3     
  22 O22           -3.4650     9.8716     4.1630 O.2     
  23 O23           -1.8884     9.6013     2.6383 O.3     
  24 C24           -4.1170    11.6525     1.5927 C.ar    
  25 C25           -3.2840    12.0845     0.5776 C.ar    
  26 C26           -3.2233    13.4280     0.2580 C.ar    
  27 C27           -3.9959    14.3395     0.9531 C.ar    
  28 C28           -4.8295    13.9074     1.9676 C.ar    
  29 C29           -4.8935    12.5634     2.2844 C.ar    
  30 C30           -5.5773     9.8532     2.4754 C.3     
  31 H31            2.9559     0.5401     2.3856 H       
  32 H32           -0.1114     3.4159     3.0958 H       
  33 H33           -0.9893    -0.1647     0.9292 H       
  34 H34           -2.7469     1.4281     1.8957 H       
  35 H35           -4.1091     3.3331     0.5147 H       
  36 H36           -4.3625     3.5273     2.2658 H       
  37 H37           -3.4887     5.2270    -0.8686 H       
  38 H38           -3.5676     7.6704    -1.1553 H       
  39 H39           -4.1765     8.1367     3.0491 H       
  40 H40           -4.1020     5.6920     3.3266 H       
  41 H41            1.3468    -2.0481     1.7597 H       
  42 H42            0.8818    -1.4876     0.1356 H       
  43 H43            2.5292    -1.1918     0.7414 H       
  44 H44            2.9838     3.6175     2.8437 H       
  45 H45            1.9851     3.5095     4.3132 H       
  46 H46            3.2652     2.3087     4.0168 H       
  47 H47           -1.2633     9.4070     3.3500 H       
  48 H48           -2.6804    11.3724     0.0345 H       
  49 H49           -2.5720    13.7656    -0.5346 H       
  50 H50           -3.9479    15.3893     0.7038 H       
  51 H51           -5.4329    14.6196     2.5109 H       
  52 H52           -5.5448    12.2258     3.0770 H       
  53 H53           -5.6677     8.7747     2.6044 H       
  54 H54           -5.7271    10.3478     3.4351 H       
  55 H55           -6.3303    10.1988     1.7671 H       
@<TRIPOS>BOND
   1    1    2 ar
   2    1   20 1
   3    1    6 ar
   4    2    3 ar
   5    2   31 1
   6    3    4 ar
   7    3   21 1
   8    4    5 ar
   9    4   32 1
  10    5    6 ar
  11    5    7 1
  12    6   33 1
  13    7    8 am
  14    7   34 1
  15    8    9 1
  16    8   10 2
  17    9   11 1
  18    9   35 1
  19    9   36 1
  20   11   12 ar
  21   11   16 ar
  22   12   13 ar
  23   12   37 1
  24   13   14 ar
  25   13   38 1
  26   14   15 ar
  27   14   17 1
  28   15   16 ar
  29   15   39 1
  30   16   40 1
  31   17   18 1
  32   18   19 1
  33   18   24 1
  34   18   30 1
  35   19   22 2
  36   19   23 1
  37   20   41 1
  38   20   42 1
  39   20   43 1
  40   21   44 1
  41   21   45 1
  42   21   46 1
  43   23   47 1
  44   24   25 ar
  45   24   29 ar
  46   25   26 ar
  47   25   48 1
  48   26   27 ar
  49   26   49 1
  50   27   28 ar
  51   27   50 1
  52   28   29 ar
  53   28   51 1
  54   29   52 1
  55   30   53 1
  56   30   54 1
  57   30   55 1

#	End of record

