#	Name: ASD01816312
#	Creating user name:	WinNT
#	Creation time:	15. 06. 2019 19:35

#	Modifying user name:	WinNT
#	Modification time:	15. 06. 2019 19:35

#	Program:	/corina/corina34_cracker 3.40 0067  02.08.2006

@<TRIPOS>MOLECULE
ASD01816312
  60   65    0    0    0
SMALL
NO_CHARGES


@<TRIPOS>ATOM
   1 C1            -0.0167     1.3813     0.0096 C.ar    
   2 C2             0.0021    -0.0041     0.0020 C.ar    
   3 C3             1.1984    -0.6909    -0.0131 C.ar    
   4 C4             2.4015     0.0059    -0.0203 C.ar    
   5 C5             2.3790     1.4106    -0.0126 C.ar    
   6 C6             1.1663     2.0916     0.0022 C.ar    
   7 N7             3.6053    -0.6772    -0.0345 N.pl3   
   8 C8             4.7970    -0.0586    -0.0416 C.2     
   9 C9             4.9000     1.3103    -0.0356 C.2     
  10 C10            3.6670     2.1302    -0.0205 C.2     
  11 C11            5.9971     2.2729    -0.0401 C.2     
  12 N12            5.4246     3.4960    -0.0291 N.am    
  13 N13            4.0323     3.3799    -0.0174 N.2     
  14 O14            7.1914     2.0229    -0.0516 O.2     
  15 C15            3.5779    -2.1419    -0.0416 C.3     
  16 C16            3.5558    -2.6370    -1.4648 C.ar    
  17 C17            4.7438    -2.8861    -2.1272 C.ar    
  18 C18            4.7268    -3.3395    -3.4317 C.ar    
  19 C19            3.5152    -3.5456    -4.0778 C.ar    
  20 C20            2.3241    -3.2951    -3.4099 C.ar    
  21 C21            2.3475    -2.8468    -2.1037 C.ar    
  22 N22            3.4947    -4.0053    -5.4019 N.pl3   
  23 C23            2.3900    -4.2463    -6.1437 C.2     
  24 C24            2.7969    -4.6753    -7.3609 C.2     
  25 C25            4.1959    -4.6976    -7.3642 C.2     
  26 N26            4.6150    -4.2906    -6.1931 N.2     
  27 C27            6.1261     4.7076    -0.0283 C.ar    
  28 C28            7.5158     4.7059    -0.0453 C.ar    
  29 C29            5.4344     5.9092    -0.0164 C.ar    
  30 C30            6.1382     7.1136    -0.0157 C.ar    
  31 C31            7.5349     7.1007    -0.0270 C.ar    
  32 C32            8.2135     5.8995    -0.0441 C.ar    
  33 C33            5.4088     8.3983    -0.0035 C.2     
  34 O34            4.1942     8.4071     0.0059 O.2     
  35 O35            6.0908     9.5601    -0.0029 O.3     
  36 C36            6.2496    11.9901     0.0082 C.3     
  37 C37            5.3088    10.7835     0.0094 C.3     
  38 H38           -0.9602     1.9068     0.0169 H       
  39 H39           -0.9288    -0.5516     0.0083 H       
  40 H40            1.2004    -1.7709    -0.0189 H       
  41 H41            1.1506     3.1715     0.0084 H       
  42 H42            5.6983    -0.6536    -0.0519 H       
  43 H43            4.4655    -2.5244     0.4624 H       
  44 H44            2.6859    -2.4912     0.4785 H       
  45 H45            5.6859    -2.7256    -1.6241 H       
  46 H46            5.6549    -3.5332    -3.9488 H       
  47 H47            1.3802    -3.4541    -3.9100 H       
  48 H48            1.4213    -2.6517    -1.5836 H       
  49 H49            1.3668    -4.1197    -5.8222 H       
  50 H50            2.1551    -4.9516    -8.1843 H       
  51 H51            4.8222    -4.9951    -8.1923 H       
  52 H52            8.0526     3.7688    -0.0590 H       
  53 H53            4.3544     5.9126    -0.0080 H       
  54 H54            8.0835     8.0310    -0.0269 H       
  55 H55            9.2934     5.8916    -0.0525 H       
  56 H56            6.8851    11.9561     0.8932 H       
  57 H57            6.8713    11.9652    -0.8867 H       
  58 H58            5.6626    12.9085     0.0174 H       
  59 H59            4.6734    10.8174    -0.8756 H       
  60 H60            4.6871    10.8083     0.9043 H       
@<TRIPOS>BOND
   1    1    2 ar
   2    1    6 ar
   3    1   38 1
   4    2    3 ar
   5    2   39 1
   6    3    4 ar
   7    3   40 1
   8    4    5 ar
   9    4    7 1
  10    5    6 ar
  11    5   10 1
  12    6   41 1
  13    7    8 1
  14    7   15 1
  15    8    9 2
  16    8   42 1
  17    9   10 1
  18    9   11 1
  19   10   13 2
  20   11   12 am
  21   11   14 2
  22   12   13 1
  23   12   27 1
  24   15   16 1
  25   15   43 1
  26   15   44 1
  27   16   17 ar
  28   16   21 ar
  29   17   18 ar
  30   17   45 1
  31   18   19 ar
  32   18   46 1
  33   19   20 ar
  34   19   22 1
  35   20   21 ar
  36   20   47 1
  37   21   48 1
  38   22   23 1
  39   22   26 1
  40   23   24 2
  41   23   49 1
  42   24   25 1
  43   24   50 1
  44   25   26 2
  45   25   51 1
  46   27   29 ar
  47   27   28 ar
  48   28   32 ar
  49   28   52 1
  50   29   30 ar
  51   29   53 1
  52   30   31 ar
  53   30   33 1
  54   31   32 ar
  55   31   54 1
  56   32   55 1
  57   33   34 2
  58   33   35 1
  59   35   37 1
  60   36   37 1
  61   36   56 1
  62   36   57 1
  63   36   58 1
  64   37   59 1
  65   37   60 1

#	End of record

