#	Name: ASD04590745
#	Creating user name:	WinNT
#	Creation time:	15. 06. 2019 20:51

#	Modifying user name:	WinNT
#	Modification time:	15. 06. 2019 20:51

#	Program:	/corina/corina34_cracker 3.40 0067  02.08.2006

@<TRIPOS>MOLECULE
ASD04590745
  66   71    0    0    0
SMALL
NO_CHARGES


@<TRIPOS>ATOM
   1 N1            -2.9248    -3.2756     0.2556 N.ar    
   2 C2            -1.7924    -2.6516    -0.0424 C.ar    
   3 N3            -0.6377    -3.2900    -0.1402 N.ar    
   4 C4            -0.5708    -4.6027     0.0605 C.ar    
   5 C5            -1.7567    -5.2949     0.3789 C.ar    
   6 C6            -2.9471    -4.5807     0.4706 C.ar    
   7 N7             0.4628    -5.5057     0.0271 N.pl3   
   8 C8             0.0020    -6.7791     0.3136 C.ar    
   9 C9            -1.3837    -6.7057     0.5426 C.ar    
  10 C10            0.6238    -8.0175     0.4070 C.ar    
  11 N11           -0.0721    -9.0962     0.7033 N.ar    
  12 C12           -1.3744    -9.0613     0.9241 C.ar    
  13 C13           -2.0752    -7.8761     0.8530 C.ar    
  14 C14            1.8571    -5.1691    -0.2708 C.3     
  15 N15           -1.8203    -1.2835    -0.2594 N.pl3   
  16 C16           -3.0361    -0.6058    -0.2750 C.ar    
  17 N17           -4.1684    -1.2882    -0.2039 N.ar    
  18 C18           -5.3418    -0.6848    -0.2157 C.ar    
  19 C19           -5.4301     0.6900    -0.3033 C.ar    
  20 C20           -4.2657     1.4428    -0.3799 C.ar    
  21 C21           -3.0504     0.7825    -0.3596 C.ar    
  22 C22           -6.7764     1.3670    -0.3164 C.3     
  23 C23           -8.3688     2.5436     1.0782 C.3     
  24 N24           -7.1819     1.6772     1.0611 N.3     
  25 C25            1.9615    -4.5512    -1.6761 C.3     
  26 C26            2.5301    -3.1291    -1.4912 C.3     
  27 C27            3.2824    -3.1937    -0.1388 C.3     
  28 C28            2.3659    -4.1009     0.7192 C.3     
  29 C29           -8.8053     2.7777     2.5264 C.3     
  30 N30           -7.6992     3.3896     3.2758 N.3     
  31 C31           -6.5124     2.5232     3.2587 C.3     
  32 C32           -6.0758     2.2891     1.8105 C.3     
  33 C33           -8.1047     3.6998     4.6533 C.3     
  34 C34           -9.1613     4.7742     4.6361 C.2     
  35 O35           -9.4553     5.3158     3.5968 O.2     
  36 O36           -9.7759     5.1294     5.7753 O.3     
  37 H37           -3.8723    -5.0824     0.7128 H       
  38 H38            1.6870    -8.0969     0.2350 H       
  39 H39           -1.8979    -9.9751     1.1636 H       
  40 H40           -3.1396    -7.8545     1.0347 H       
  41 H41            2.4781    -6.0627    -0.2087 H       
  42 H42           -0.9925    -0.7978    -0.4003 H       
  43 H43           -6.2448    -1.2742    -0.1563 H       
  44 H44           -4.3079     2.5198    -0.4492 H       
  45 H45           -2.1253     1.3369    -0.4174 H       
  46 H46           -6.7135     2.2898    -0.8931 H       
  47 H47           -7.5122     0.7038    -0.7712 H       
  48 H48           -8.1284     3.4990     0.6119 H       
  49 H49           -9.1777     2.0632     0.5277 H       
  50 H50            2.6339    -5.1445    -2.2958 H       
  51 H51            0.9748    -4.5018    -2.1366 H       
  52 H52            3.2193    -2.8856    -2.2998 H       
  53 H53            1.7226    -2.3985    -1.4440 H       
  54 H54            4.2656    -3.6469    -0.2650 H       
  55 H55            3.3673    -2.2013     0.3038 H       
  56 H56            1.5318    -3.5272     1.1233 H       
  57 H57            2.9351    -4.5666     1.5236 H       
  58 H58           -9.6681     3.4436     2.5430 H       
  59 H59           -9.0718     1.8251     2.9843 H       
  60 H60           -5.7035     3.0036     3.8092 H       
  61 H61           -6.7528     1.5678     3.7250 H       
  62 H62           -5.2130     1.6232     1.7939 H       
  63 H63           -5.8093     3.2417     1.3526 H       
  64 H64           -8.5064     2.8027     5.1245 H       
  65 H65           -7.2397     4.0498     5.2166 H       
  66 H66          -10.4467     5.8232     5.7143 H       
@<TRIPOS>BOND
   1    1    2 ar
   2    1    6 ar
   3    2    3 ar
   4    2   15 1
   5    3    4 ar
   6    4    5 ar
   7    4    7 1
   8    5    6 ar
   9    5    9 1
  10    6   37 1
  11    7    8 1
  12    7   14 1
  13    8    9 ar
  14    8   10 ar
  15    9   13 ar
  16   10   11 ar
  17   10   38 1
  18   11   12 ar
  19   12   13 ar
  20   12   39 1
  21   13   40 1
  22   14   25 1
  23   14   28 1
  24   14   41 1
  25   15   16 1
  26   15   42 1
  27   16   17 ar
  28   16   21 ar
  29   17   18 ar
  30   18   19 ar
  31   18   43 1
  32   19   20 ar
  33   19   22 1
  34   20   21 ar
  35   20   44 1
  36   21   45 1
  37   22   24 1
  38   22   46 1
  39   22   47 1
  40   23   24 1
  41   23   29 1
  42   23   48 1
  43   23   49 1
  44   24   32 1
  45   25   26 1
  46   25   50 1
  47   25   51 1
  48   26   27 1
  49   26   52 1
  50   26   53 1
  51   27   28 1
  52   27   54 1
  53   27   55 1
  54   28   56 1
  55   28   57 1
  56   29   30 1
  57   29   58 1
  58   29   59 1
  59   30   31 1
  60   30   33 1
  61   31   32 1
  62   31   60 1
  63   31   61 1
  64   32   62 1
  65   32   63 1
  66   33   34 1
  67   33   64 1
  68   33   65 1
  69   34   35 2
  70   34   36 1
  71   36   66 1

#	End of record

