#	Name: ASD00844080
#	Creating user name:	WinNT
#	Creation time:	15. 06. 2019 18:49

#	Modifying user name:	WinNT
#	Modification time:	15. 06. 2019 18:49

#	Program:	/corina/corina34_cracker 3.40 0067  02.08.2006

@<TRIPOS>MOLECULE
ASD00844080
  94   99    0    0    0
SMALL
NO_CHARGES


@<TRIPOS>ATOM
   1 F1            -0.1126    -3.1351     4.7194 F       
   2 N2            -0.0159     1.3183     0.0093 N.ar    
   3 C3             0.0021    -0.0041     0.0020 C.ar    
   4 C4             1.2069    -0.6955    -0.0132 C.ar    
   5 C5             2.3925     0.0180    -0.0207 C.ar    
   6 C6             2.3308     1.4049    -0.0127 C.ar    
   7 C7             1.0980     2.0259     0.0025 C.ar    
   8 C8             1.2224    -2.2024    -0.0209 C.3     
   9 C9             0.4763    -2.7343    -1.2260 C.2     
  10 O10            2.5880    -2.6958    -0.0097 O.3     
  11 C11            3.3814    -2.3221    -1.0313 C.2     
  12 N12            4.6600    -2.7452    -1.0812 N.am    
  13 O13            2.9446    -1.6033    -1.9082 O.2     
  14 C14            5.5380    -2.3458    -2.1895 C.3     
  15 C15            6.1423    -3.6053    -2.8182 C.3     
  16 C16            6.8368    -4.4299    -1.7320 C.3     
  17 C17            5.8107    -4.8595    -0.6810 C.3     
  18 C18            5.2042    -3.6096    -0.0251 C.3     
  19 N19            7.4461    -5.6219    -2.3370 N.3     
  20 C20            8.2232    -6.3774    -1.3445 C.3     
  21 C21            8.7741    -7.6496    -1.9929 C.3     
  22 N22            9.6094    -7.2864    -3.1461 N.3     
  23 C23            8.8323    -6.5309    -4.1385 C.3     
  24 C24            8.2815    -5.2587    -3.4902 C.3     
  25 C25           10.2187    -8.4784    -3.7510 C.3     
  26 O26            0.7562    -2.5398    -2.3900 O.2     
  27 N27           -0.5539    -3.4626    -0.7639 N.am    
  28 C28            0.4503    -2.7460     1.1593 C.ar    
  29 C29           -0.5978    -3.4898     0.6316 C.ar    
  30 C30            0.6153    -2.6252     2.5208 C.ar    
  31 C31           -0.2711    -3.2506     3.3828 C.ar    
  32 C32           -1.3213    -3.9958     2.8683 C.ar    
  33 C33           -1.4865    -4.1167     1.5019 C.ar    
  34 F34           -2.1867    -4.6064     3.7070 F       
  35 C35           -1.0180    -5.8565    -2.0399 C.ar    
  36 C36            0.1594    -6.0216    -2.7544 C.ar    
  37 C37           -1.6947    -6.9617    -1.5608 C.ar    
  38 C38           -1.1991    -8.2313    -1.7927 C.ar    
  39 C39           -0.0255    -8.3985    -2.5047 C.ar    
  40 C40            0.6545    -7.2969    -2.9862 C.ar    
  41 H41            0.3597    -9.3914    -2.6845 H       
  42 O42            0.8267    -4.9361    -3.2271 O.3     
  43 C43            2.0321    -5.1815    -3.9542 C.3     
  44 C44            2.6372    -3.8498    -4.4028 C.3     
  45 C45           10.9770    -8.0765    -5.0177 C.3     
  46 C46           11.1903    -9.1155    -2.7555 C.3     
  47 O47           -1.1673    -0.6919     0.0099 O.3     
  48 C48           -2.3720     0.0766     0.0260 C.3     
  49 C49           -3.5777    -0.8652     0.0330 C.3     
  50 F50           -3.5507    -1.6659    -1.1140 F       
  51 F51           -3.5280    -1.6782     1.1704 F       
  52 S52           -1.6462    -4.2384    -1.7372 S.o2    
  53 O53           -2.8263    -4.4044    -0.9633 O.2     
  54 O54           -1.6244    -3.5595    -2.9854 O.2     
  55 H55            3.3442    -0.4925    -0.0322 H       
  56 H56            3.2375     1.9916    -0.0178 H       
  57 H57            1.0444     3.1046     0.0084 H       
  58 H58            4.9585    -1.8056    -2.9382 H       
  59 H59            6.3362    -1.7071    -1.8114 H       
  60 H60            5.3510    -4.1991    -3.2757 H       
  61 H61            6.8692    -3.3195    -3.5786 H       
  62 H62            7.6115    -3.8271    -1.2581 H       
  63 H63            5.0225    -5.4415    -1.1586 H       
  64 H64            6.3015    -5.4663     0.0799 H       
  65 H65            5.9767    -3.0764     0.5291 H       
  66 H66            4.4032    -3.9049     0.6527 H       
  67 H67            9.0503    -5.7641    -0.9868 H       
  68 H68            7.5799    -6.6455    -0.5064 H       
  69 H69            9.3749    -8.1970    -1.2666 H       
  70 H70            7.9463    -8.2756    -2.3262 H       
  71 H71            9.4756    -6.2627    -4.9766 H       
  72 H72            8.0052    -7.1442    -4.4962 H       
  73 H73            7.6806    -4.7112    -4.2164 H       
  74 H74            9.1092    -4.6327    -3.1568 H       
  75 H75            9.4384    -9.1952    -4.0067 H       
  76 H76            1.4351    -2.0439     2.9166 H       
  77 H77           -2.3067    -4.6983     1.1077 H       
  78 H78           -2.6115    -6.8337    -1.0045 H       
  79 H79           -1.7292    -9.0939    -1.4168 H       
  80 H80            1.5707    -7.4281    -3.5428 H       
  81 H81            2.7419    -5.7060    -3.3145 H       
  82 H82            1.8107    -5.7930    -4.8289 H       
  83 H83            2.8586    -3.2383    -3.5280 H       
  84 H84            3.5567    -4.0370    -4.9574 H       
  85 H85            1.9274    -3.3253    -5.0424 H       
  86 H86           11.7572    -7.3596    -4.7620 H       
  87 H87           11.4291    -8.9609    -5.4665 H       
  88 H88           10.2848    -7.6226    -5.7269 H       
  89 H89           10.6501    -9.4018    -1.8531 H       
  90 H90           11.6424    -9.9999    -3.2044 H       
  91 H91           11.9706    -8.3986    -2.4998 H       
  92 H92           -2.3931     0.7004     0.9196 H       
  93 H93           -2.4108     0.7099    -0.8602 H       
  94 H94           -4.4966    -0.2790     0.0452 H       
@<TRIPOS>BOND
   1    1   31 1
   2    2    3 ar
   3    2    7 ar
   4    3    4 ar
   5    3   47 1
   6    4    5 ar
   7    4    8 1
   8    5    6 ar
   9    5   55 1
  10    6    7 ar
  11    6   56 1
  12    7   57 1
  13    8    9 1
  14    8   10 1
  15    8   28 1
  16    9   26 2
  17    9   27 am
  18   10   11 1
  19   11   12 am
  20   11   13 2
  21   12   14 1
  22   12   18 1
  23   14   15 1
  24   14   58 1
  25   14   59 1
  26   15   16 1
  27   15   60 1
  28   15   61 1
  29   16   17 1
  30   16   19 1
  31   16   62 1
  32   17   18 1
  33   17   63 1
  34   17   64 1
  35   18   65 1
  36   18   66 1
  37   19   20 1
  38   19   24 1
  39   20   21 1
  40   20   67 1
  41   20   68 1
  42   21   22 1
  43   21   69 1
  44   21   70 1
  45   22   23 1
  46   22   25 1
  47   23   24 1
  48   23   71 1
  49   23   72 1
  50   24   73 1
  51   24   74 1
  52   25   45 1
  53   25   46 1
  54   25   75 1
  55   27   52 am
  56   27   29 1
  57   28   29 ar
  58   28   30 ar
  59   29   33 ar
  60   30   31 ar
  61   30   76 1
  62   31   32 ar
  63   32   33 ar
  64   32   34 1
  65   33   77 1
  66   35   36 ar
  67   35   37 ar
  68   35   52 1
  69   36   42 1
  70   36   40 ar
  71   37   38 ar
  72   37   78 1
  73   38   39 ar
  74   38   79 1
  75   39   40 ar
  76   39   41 1
  77   40   80 1
  78   42   43 1
  79   43   44 1
  80   43   81 1
  81   43   82 1
  82   44   83 1
  83   44   84 1
  84   44   85 1
  85   45   86 1
  86   45   87 1
  87   45   88 1
  88   46   89 1
  89   46   90 1
  90   46   91 1
  91   47   48 1
  92   48   49 1
  93   48   92 1
  94   48   93 1
  95   49   50 1
  96   49   51 1
  97   49   94 1
  98   52   53 2
  99   52   54 2

#	End of record

