#	Name: ASD00841449
#	Creating user name:	WinNT
#	Creation time:	15. 06. 2019 18:42

#	Modifying user name:	WinNT
#	Modification time:	15. 06. 2019 18:42

#	Program:	/corina/corina34_cracker 3.40 0067  02.08.2006

@<TRIPOS>MOLECULE
ASD00841449
  84   89    0    0    0
SMALL
NO_CHARGES


@<TRIPOS>ATOM
   1 C1            -0.0064     1.3877     0.0272 C.ar    
   2 C2             0.0087     0.0007     0.0135 C.ar    
   3 C3             1.2191    -0.6774    -0.0051 C.ar    
   4 C4             2.4055     0.0297    -0.0099 C.ar    
   5 C5             2.3878     1.4124     0.0042 C.ar    
   6 C6             1.1832     2.0904     0.0223 C.ar    
   7 C7             1.2391    -2.1842    -0.0195 C.3     
   8 C8             0.4942    -2.7130    -1.2267 C.2     
   9 N9             2.6184    -2.6779    -0.0107 N.am    
  10 C10            3.4635    -2.3343    -1.0027 C.2     
  11 N11            4.7591    -2.7005    -0.9414 N.am    
  12 O12            3.0571    -1.6938    -1.9530 O.2     
  13 C13            5.2968    -3.3774     0.2485 C.3     
  14 C14            6.0333    -4.6432    -0.2026 C.3     
  15 N15            7.0320    -4.2885    -1.2198 N.3     
  16 C16            6.3946    -3.7369    -2.4228 C.3     
  17 C17            5.6714    -2.4395    -2.0652 C.3     
  18 C18            7.8764    -5.4432    -1.5537 C.3     
  19 C19            8.8195    -5.0726    -2.7016 C.3     
  20 C20            9.7377    -6.2590    -3.0042 C.3     
  21 N21           10.5103    -6.6005    -1.8030 N.3     
  22 C22            9.6277    -7.0053    -0.7014 C.3     
  23 C23            8.7062    -5.8413    -0.3300 C.3     
  24 H24           11.1914    -7.3175    -2.0029 H       
  25 O25            0.7727    -2.5120    -2.3899 O.2     
  26 N26           -0.5337    -3.4465    -0.7674 N.am    
  27 C27            0.4689    -2.7353     1.1584 C.ar    
  28 C28           -0.5772    -3.4800     0.6274 C.ar    
  29 C29            0.6338    -2.6207     2.5203 C.ar    
  30 C30           -0.2500    -3.2526     3.3791 C.ar    
  31 C31           -1.2975    -3.9984     2.8622 C.ar    
  32 C32           -1.4634    -4.1137     1.4953 C.ar    
  33 Cl33          -0.0459    -3.1116     5.0973 Cl      
  34 F34           -2.1604    -4.6154     3.6987 F       
  35 C35           -0.9904    -5.8365    -2.0533 C.ar    
  36 C36           -1.3171    -6.8798    -1.2068 C.ar    
  37 C37           -0.1722    -6.0595    -3.1453 C.ar    
  38 C38            0.3209    -7.3258    -3.3933 C.ar    
  39 C39           -0.0054    -8.3744    -2.5455 C.ar    
  40 C40           -0.8262    -8.1479    -1.4502 C.ar    
  41 O41            0.4781    -9.6212    -2.7876 O.3     
  42 H42           -1.9564    -6.7031    -0.3544 H       
  43 C43            0.1007   -10.6522    -1.8729 C.3     
  44 S44           -1.6236    -4.2216    -1.7438 S.o2    
  45 O45           -2.8031    -4.3945    -0.9705 O.2     
  46 O46           -1.6041    -3.5375    -2.9892 O.2     
  47 O47           -1.1600    -0.6928     0.0188 O.3     
  48 C48           -3.5697    -0.8753     0.0418 C.3     
  49 C49           -2.3676     0.0711     0.0387 C.3     
  50 H50           -0.9473     1.9179     0.0372 H       
  51 H51            3.3479    -0.4976    -0.0244 H       
  52 H52            3.3166     1.9635     0.0011 H       
  53 H53            1.1719     3.1703     0.0333 H       
  54 H54            2.9234    -3.2522     0.7091 H       
  55 H55            5.9909    -2.7141     0.7647 H       
  56 H56            4.4791    -3.6480     0.9166 H       
  57 H57            6.5317    -5.0985     0.6533 H       
  58 H58            5.3183    -5.3489    -0.6254 H       
  59 H59            7.1550    -3.5350    -3.1773 H       
  60 H60            5.6745    -4.4553    -2.8148 H       
  61 H61            5.1030    -2.0878    -2.9262 H       
  62 H62            6.3994    -1.6838    -1.7701 H       
  63 H63            7.2464    -6.2799    -1.8556 H       
  64 H64            8.2349    -4.8294    -3.5888 H       
  65 H65            9.4215    -4.2106    -2.4142 H       
  66 H66            9.1359    -7.1165    -3.3050 H       
  67 H67           10.4201    -5.9933    -3.8116 H       
  68 H68            9.0264    -7.8594    -1.0129 H       
  69 H69           10.2303    -7.2818     0.1638 H       
  70 H70            9.3064    -4.9914    -0.0052 H       
  71 H71            8.0407    -6.1472     0.4771 H       
  72 H72            1.4518    -2.0388     2.9187 H       
  73 H73           -2.2821    -4.6961     1.0990 H       
  74 H74            0.0813    -5.2430    -3.8052 H       
  75 H75            0.9597    -7.4996    -4.2467 H       
  76 H76           -1.0820    -8.9626    -0.7889 H       
  77 H77            0.4454   -10.3937    -0.8717 H       
  78 H78           -0.9845   -10.7547    -1.8684 H       
  79 H79            0.5534   -11.5947    -2.1809 H       
  80 H80           -3.5466    -1.4951    -0.8545 H       
  81 H81           -3.5283    -1.5125     0.9252 H       
  82 H82           -4.4908    -0.2927     0.0570 H       
  83 H83           -2.3907     0.6909     0.9350 H       
  84 H84           -2.4091     0.7082    -0.8447 H       
@<TRIPOS>BOND
   1    1    2 ar
   2    1    6 ar
   3    1   50 1
   4    2    3 ar
   5    2   47 1
   6    3    4 ar
   7    3    7 1
   8    4    5 ar
   9    4   51 1
  10    5    6 ar
  11    5   52 1
  12    6   53 1
  13    7    8 1
  14    7    9 1
  15    7   27 1
  16    8   25 2
  17    8   26 am
  18    9   10 am
  19    9   54 1
  20   10   11 am
  21   10   12 2
  22   11   13 1
  23   11   17 1
  24   13   14 1
  25   13   55 1
  26   13   56 1
  27   14   15 1
  28   14   57 1
  29   14   58 1
  30   15   16 1
  31   15   18 1
  32   16   17 1
  33   16   59 1
  34   16   60 1
  35   17   61 1
  36   17   62 1
  37   18   19 1
  38   18   23 1
  39   18   63 1
  40   19   20 1
  41   19   64 1
  42   19   65 1
  43   20   21 1
  44   20   66 1
  45   20   67 1
  46   21   22 1
  47   21   24 1
  48   22   23 1
  49   22   68 1
  50   22   69 1
  51   23   70 1
  52   23   71 1
  53   26   44 am
  54   26   28 1
  55   27   28 ar
  56   27   29 ar
  57   28   32 ar
  58   29   30 ar
  59   29   72 1
  60   30   31 ar
  61   30   33 1
  62   31   32 ar
  63   31   34 1
  64   32   73 1
  65   35   36 ar
  66   35   37 ar
  67   35   44 1
  68   36   42 1
  69   36   40 ar
  70   37   38 ar
  71   37   74 1
  72   38   39 ar
  73   38   75 1
  74   39   40 ar
  75   39   41 1
  76   40   76 1
  77   41   43 1
  78   43   77 1
  79   43   78 1
  80   43   79 1
  81   44   45 2
  82   44   46 2
  83   47   49 1
  84   48   49 1
  85   48   80 1
  86   48   81 1
  87   48   82 1
  88   49   83 1
  89   49   84 1

#	End of record

