#	Name: ASD01410569
#	Creating user name:	WinNT
#	Creation time:	15. 06. 2019 19:18

#	Modifying user name:	WinNT
#	Modification time:	15. 06. 2019 19:18

#	Program:	/corina/corina34_cracker 3.40 0067  02.08.2006

@<TRIPOS>MOLECULE
ASD01410569
  81   84    0    0    0
SMALL
NO_CHARGES


@<TRIPOS>ATOM
   1 C1             2.0999     3.5661    -3.1905 C.ar    
   2 C2             2.2496     2.6500    -4.2151 C.ar    
   3 C3             3.2378     1.6852    -4.1444 C.ar    
   4 C4             4.0780     1.6344    -3.0494 C.ar    
   5 C5             3.9302     2.5531    -2.0197 C.ar    
   6 C6             2.9379     3.5200    -2.0932 C.ar    
   7 O7             4.7552     2.5051    -0.9411 O.3     
   8 C8             5.6518     1.4856    -0.8682 C.ar    
   9 C9             5.3623     0.3619    -0.1033 C.ar    
  10 C10            6.2654    -0.6786    -0.0224 C.ar    
  11 C11            7.4715    -0.6092    -0.7056 C.ar    
  12 C12            7.7699     0.5225    -1.4797 C.ar    
  13 C13            6.8466     1.5678    -1.5600 C.ar    
  14 N14            8.3837    -1.6602    -0.6228 N.am    
  15 C15            8.6282    -2.4271    -1.7038 C.2     
  16 C16            9.0765    -1.9310     0.6393 C.3     
  17 O17            8.1137    -2.1565    -2.7682 O.2     
  18 C18            9.5407    -3.6210    -1.5898 C.3     
  19 C19            1.3339     2.7027    -5.4109 C.3     
  20 C20            9.8791    -4.1396    -2.9889 C.3     
  21 C21           10.8056    -5.3517    -2.8733 C.3     
  22 C22           10.1058    -6.4543    -2.0761 C.3     
  23 C23            9.7674    -5.9357    -0.6770 C.3     
  24 C24            8.8409    -4.7236    -0.7926 C.3     
  25 C25           11.0323    -7.6664    -1.9604 C.3     
  26 C26           10.0193    -0.7702     0.9628 C.3     
  27 O27            7.1889    -3.1865     1.4766 O.3     
  28 C28            8.0491    -2.0820     1.7629 C.3     
  29 N29            1.9166     3.5744    -6.4340 N.pl3   
  30 N30            2.7097     3.1786    -7.3657 N.2     
  31 C31            3.0413     4.2129    -8.1048 C.2     
  32 C32            2.3779     5.3091    -7.5486 C.2     
  33 N33            1.7001     4.8387    -6.5262 N.2     
  34 C34            6.2617    -3.4873     2.5215 C.3     
  35 O35           11.0652    -0.7208    -0.0096 O.3     
  36 C36           12.0815     0.2416     0.2783 C.3     
  37 C37            2.7748     4.5195    -0.9771 C.3     
  38 F38            1.7173     5.3849    -1.2771 F       
  39 F39            2.5005     3.8444     0.2171 F       
  40 F40            3.9551     5.2570    -0.8354 F       
  41 C41            9.0484     0.6057    -2.2084 C.2     
  42 O42            9.1469     0.1235    -3.3194 O.2     
  43 O43           10.1080     1.2164    -1.6426 O.3     
  44 C44            7.1571     2.7877    -2.3885 C.3     
  45 H45            1.3300     4.3211    -3.2501 H       
  46 H46            3.3524     0.9705    -4.9460 H       
  47 H47            4.8491     0.8803    -2.9943 H       
  48 H48            4.4256     0.3028     0.4311 H       
  49 H49            6.0332    -1.5485     0.5740 H       
  50 H50            9.6524    -2.8519     0.5473 H       
  51 H51           10.4582    -3.3295    -1.0787 H       
  52 H52            1.2088     1.6990    -5.8171 H       
  53 H53            0.3634     3.0958    -5.1083 H       
  54 H54            8.9616    -4.4311    -3.5001 H       
  55 H55           10.3776    -3.3541    -3.5569 H       
  56 H56           11.0466    -5.7212    -3.8700 H       
  57 H57           11.7231    -5.0602    -2.3621 H       
  58 H58            9.1883    -6.7458    -2.5873 H       
  59 H59            9.2689    -6.7212    -0.1090 H       
  60 H60           10.6849    -5.6442    -0.1658 H       
  61 H61            8.5999    -4.3541     0.2041 H       
  62 H62            7.9234    -5.0150    -1.3038 H       
  63 H63           11.9498    -7.3749    -1.4492 H       
  64 H64           10.5337    -8.4519    -1.3925 H       
  65 H65           11.2733    -8.0359    -2.9571 H       
  66 H66            9.4619     0.1663     0.9449 H       
  67 H67           10.4505    -0.9175     1.9530 H       
  68 H68            8.5658    -2.2588     2.7063 H       
  69 H69            7.4567    -1.1701     1.8385 H       
  70 H70            3.6934     4.2152    -8.9657 H       
  71 H71            2.4117     6.3327    -7.8915 H       
  72 H72            5.6842    -2.5949     2.7628 H       
  73 H73            5.5878    -4.2784     2.1927 H       
  74 H74            6.8060    -3.8181     3.4061 H       
  75 H75           12.7490     0.3326    -0.5786 H       
  76 H76           11.6197     1.2075     0.4833 H       
  77 H77           12.6511    -0.0810     1.1499 H       
  78 H78           10.9161     1.2723    -2.1707 H       
  79 H79            6.7988     2.6362    -3.4067 H       
  80 H80            6.6626     3.6569    -1.9548 H       
  81 H81            8.2345     2.9523    -2.4032 H       
@<TRIPOS>BOND
   1    1    2 ar
   2    1    6 ar
   3    1   45 1
   4    2    3 ar
   5    2   19 1
   6    3    4 ar
   7    3   46 1
   8    4    5 ar
   9    4   47 1
  10    5    6 ar
  11    5    7 1
  12    6   37 1
  13    7    8 1
  14    8    9 ar
  15    8   13 ar
  16    9   10 ar
  17    9   48 1
  18   10   11 ar
  19   10   49 1
  20   11   12 ar
  21   11   14 1
  22   12   13 ar
  23   12   41 1
  24   13   44 1
  25   14   15 am
  26   14   16 1
  27   15   17 2
  28   15   18 1
  29   16   26 1
  30   16   28 1
  31   16   50 1
  32   18   20 1
  33   18   24 1
  34   18   51 1
  35   19   29 1
  36   19   52 1
  37   19   53 1
  38   20   21 1
  39   20   54 1
  40   20   55 1
  41   21   22 1
  42   21   56 1
  43   21   57 1
  44   22   23 1
  45   22   25 1
  46   22   58 1
  47   23   24 1
  48   23   59 1
  49   23   60 1
  50   24   61 1
  51   24   62 1
  52   25   63 1
  53   25   64 1
  54   25   65 1
  55   26   35 1
  56   26   66 1
  57   26   67 1
  58   27   28 1
  59   27   34 1
  60   28   68 1
  61   28   69 1
  62   29   30 1
  63   29   33 1
  64   30   31 2
  65   31   32 1
  66   31   70 1
  67   32   33 2
  68   32   71 1
  69   34   72 1
  70   34   73 1
  71   34   74 1
  72   35   36 1
  73   36   75 1
  74   36   76 1
  75   36   77 1
  76   37   38 1
  77   37   39 1
  78   37   40 1
  79   41   42 2
  80   41   43 1
  81   43   78 1
  82   44   79 1
  83   44   80 1
  84   44   81 1

#	End of record

