#	Name: ASD00431311
#	Creating user name:	WinNT
#	Creation time:	15. 06. 2019 18:35

#	Modifying user name:	WinNT
#	Modification time:	15. 06. 2019 18:35

#	Program:	/corina/corina34_cracker 3.40 0067  02.08.2006

@<TRIPOS>MOLECULE
ASD00431311
  38   39    0    0    0
SMALL
NO_CHARGES


@<TRIPOS>ATOM
   1 C1            -0.0867     1.2089     0.5763 C.2     
   2 N2            -0.0001    -0.0089     0.0054 N.am    
   3 O3             0.8945     1.7114     1.0874 O.2     
   4 O4            -1.2591     1.8711     0.5753 O.3     
   5 C5             1.2437    -0.6448    -0.1035 C.ar    
   6 C6             1.3301    -2.0258     0.0118 C.ar    
   7 C7             2.5560    -2.6520    -0.0961 C.ar    
   8 C8             3.7014    -1.9015    -0.3196 C.ar    
   9 C9             3.6156    -0.5214    -0.4345 C.ar    
  10 C10            2.3895     0.1052    -0.3325 C.ar    
  11 O11            4.9082    -2.5185    -0.4258 O.3     
  12 S12            6.5080    -4.2955    -1.7152 S.3     
  13 C13            5.1099    -3.3410    -1.4795 C.2     
  14 N14            4.2660    -3.5165    -2.4551 N.2     
  15 C15            4.6078    -4.3484    -3.4027 C.2     
  16 C16            5.8398    -4.9261    -3.2187 C.2     
  17 C17            6.4587    -5.8553    -4.0780 C.2     
  18 O18            7.5572    -6.2969    -3.8053 O.2     
  19 C19           -1.2787     3.1778     1.2082 C.3     
  20 C20           -0.2842     4.1014     0.5019 C.3     
  21 C21           -2.6853     3.7715     1.1090 C.3     
  22 C22           -0.8871     3.0373     2.6805 C.3     
  23 H23           -0.7989    -0.4452    -0.3301 H       
  24 H24            0.4387    -2.6101     0.1861 H       
  25 H25            2.6234    -3.7261    -0.0061 H       
  26 H26            4.5076     0.0623    -0.6078 H       
  27 H27            2.3222     1.1790    -0.4266 H       
  28 H28            3.9784    -4.5623    -4.2538 H       
  29 H29            5.9567    -6.1750    -4.9792 H       
  30 H30           -0.5632     4.2015    -0.5471 H       
  31 H31           -0.2989     5.0824     0.9769 H       
  32 H32            0.7179     3.6785     0.5725 H       
  33 H33           -3.3937     3.1135     1.6122 H       
  34 H34           -2.6999     4.7524     1.5840 H       
  35 H35           -2.9642     3.8716     0.0600 H       
  36 H36            0.1150     2.6143     2.7512 H       
  37 H37           -0.9017     4.0182     3.1556 H       
  38 H38           -1.5955     2.3793     3.1837 H       
@<TRIPOS>BOND
   1    1    2 am
   2    1    3 2
   3    1    4 1
   4    2    5 1
   5    2   23 1
   6    4   19 1
   7    5    6 ar
   8    5   10 ar
   9    6    7 ar
  10    6   24 1
  11    7    8 ar
  12    7   25 1
  13    8    9 ar
  14    8   11 1
  15    9   10 ar
  16    9   26 1
  17   10   27 1
  18   11   13 1
  19   12   13 1
  20   12   16 1
  21   13   14 2
  22   14   15 1
  23   15   16 2
  24   15   28 1
  25   16   17 1
  26   17   18 2
  27   17   29 1
  28   19   20 1
  29   19   22 1
  30   19   21 1
  31   20   30 1
  32   20   31 1
  33   20   32 1
  34   21   33 1
  35   21   34 1
  36   21   35 1
  37   22   36 1
  38   22   37 1
  39   22   38 1

#	End of record

