#	Name: ASD04590162
#	Creating user name:	WinNT
#	Creation time:	15. 06. 2019 20:50

#	Modifying user name:	WinNT
#	Modification time:	15. 06. 2019 20:50

#	Program:	/corina/corina34_cracker 3.40 0067  02.08.2006

@<TRIPOS>MOLECULE
ASD04590162
  60   63    0    0    0
SMALL
NO_CHARGES


@<TRIPOS>ATOM
   1 N1            -0.0153     1.2802     0.0091 N.pl3   
   2 N2             0.0021    -0.0041     0.0020 N.2     
   3 C3             1.2455    -0.4440    -0.0122 C.2     
   4 C4             2.0903     0.6961    -0.0142 C.2     
   5 C5             1.2523     1.7667    -0.0004 C.2     
   6 C6             1.6765    -1.8547    -0.0235 C.2     
   7 N7             0.7571    -2.8402    -0.0200 N.am    
   8 O8             2.8611    -2.1284    -0.0359 O.2     
   9 N9             3.4930     0.7146    -0.0270 N.am    
  10 C10            4.1514     1.8906    -0.0271 C.2     
  11 C11            1.1851    -4.2412    -0.0312 C.3     
  12 O12            3.5296     2.9356    -0.0159 O.2     
  13 C13            0.0894    -5.1159     0.5844 C.3     
  14 C14            0.5160    -6.5839     0.5145 C.3     
  15 N15            0.7411    -6.9635    -0.8861 N.3     
  16 C16            1.8216    -6.1692    -1.4844 C.3     
  17 C17            1.4339    -4.6887    -1.4743 C.3     
  18 C18            1.0174    -8.4014    -1.0040 C.3     
  19 C19            1.1229    -8.7827    -2.4832 C.3     
  20 C20            2.3405    -8.7272    -0.3054 C.3     
  21 C21            5.6264     1.9101    -0.0406 C.ar    
  22 C22            6.3411     1.9132     1.1622 C.ar    
  23 C23            7.7230     1.9315     1.1402 C.ar    
  24 C24            8.3993     1.9473    -0.0661 C.ar    
  25 C25            7.7007     1.9449    -1.2598 C.ar    
  26 C26            6.3188     1.9199    -1.2564 C.ar    
  27 F27            5.6824     1.8987     2.3416 F       
  28 F28            5.6383     1.9171    -2.4235 F       
  29 C29            1.4709   -10.2685    -2.5985 C.3     
  30 N30            2.7446   -10.5286    -1.9155 N.3     
  31 C31            2.6532   -10.2146    -0.4839 C.3     
  32 C32            3.1796   -11.9162    -2.1233 C.3     
  33 H33           -0.8184     1.8242     0.0160 H       
  34 H34            1.5405     2.8076     0.0024 H       
  35 H35           -0.1879    -2.6218    -0.0102 H       
  36 H36            3.9890    -0.1189    -0.0359 H       
  37 H37            2.1030    -4.3463     0.5472 H       
  38 H38           -0.0625    -4.8302     1.6252 H       
  39 H39           -0.8392    -4.9800     0.0299 H       
  40 H40            1.4372    -6.7218     1.0807 H       
  41 H41           -0.2683    -7.2106     0.9391 H       
  42 H42            2.7366    -6.3090    -0.9089 H       
  43 H43            1.9855    -6.4946    -2.5117 H       
  44 H44            0.5265    -4.5461    -2.0611 H       
  45 H45            2.2427    -4.0978    -1.9042 H       
  46 H46            0.2100    -8.9669    -0.5388 H       
  47 H47            0.1698    -8.5928    -2.9768 H       
  48 H48            1.9038    -8.1881    -2.9574 H       
  49 H49            3.1405    -8.1318    -0.7454 H       
  50 H50            2.2573    -8.4977     0.7569 H       
  51 H51            8.2762     1.9339     2.0678 H       
  52 H52            9.4791     1.9620    -0.0760 H       
  53 H53            8.2367     1.9580    -2.1973 H       
  54 H54            0.6829   -10.8630    -2.1362 H       
  55 H55            1.5608   -10.5399    -3.6503 H       
  56 H56            3.6018   -10.4469     0.0002 H       
  57 H57            1.8597   -10.8094    -0.0315 H       
  58 H58            3.3110   -12.0999    -3.1897 H       
  59 H59            4.1252   -12.0818    -1.6069 H       
  60 H60            2.4255   -12.5966    -1.7277 H       
@<TRIPOS>BOND
   1    1    2 1
   2    1    5 1
   3    1   33 1
   4    2    3 2
   5    3    4 1
   6    3    6 1
   7    4    5 2
   8    4    9 1
   9    5   34 1
  10    6    7 am
  11    6    8 2
  12    7   11 1
  13    7   35 1
  14    9   10 am
  15    9   36 1
  16   10   12 2
  17   10   21 1
  18   11   13 1
  19   11   17 1
  20   11   37 1
  21   13   14 1
  22   13   38 1
  23   13   39 1
  24   14   15 1
  25   14   40 1
  26   14   41 1
  27   15   16 1
  28   15   18 1
  29   16   17 1
  30   16   42 1
  31   16   43 1
  32   17   44 1
  33   17   45 1
  34   18   19 1
  35   18   20 1
  36   18   46 1
  37   19   29 1
  38   19   47 1
  39   19   48 1
  40   20   31 1
  41   20   49 1
  42   20   50 1
  43   21   22 ar
  44   21   26 ar
  45   22   23 ar
  46   22   27 1
  47   23   24 ar
  48   23   51 1
  49   24   25 ar
  50   24   52 1
  51   25   26 ar
  52   25   53 1
  53   26   28 1
  54   29   30 1
  55   29   54 1
  56   29   55 1
  57   30   31 1
  58   30   32 1
  59   31   56 1
  60   31   57 1
  61   32   58 1
  62   32   59 1
  63   32   60 1

#	End of record

