#	Name: ASD07000007
#	Creating user name:	WinNT
#	Creation time:	15. 06. 2019 21:08

#	Modifying user name:	WinNT
#	Modification time:	15. 06. 2019 21:08

#	Program:	/corina/corina34_cracker 3.40 0067  02.08.2006

@<TRIPOS>MOLECULE
ASD07000007
  43   44    0    0    0
SMALL
NO_CHARGES


@<TRIPOS>ATOM
   1 C1            -0.0187     1.5258     0.0104 C.3     
   2 C2             1.5627    -2.4877    -0.1666 C.3     
   3 C3             3.1171    -4.6254    -1.4732 C.3     
   4 C4             0.0021    -0.0041     0.0020 C.3     
   5 C5             0.7182    -0.4975    -1.2568 C.3     
   6 C6             1.0327    -8.5510    -2.4160 C.ar    
   7 C7             1.7862    -7.4542    -2.0628 C.ar    
   8 C8            -0.6619    -7.1300    -3.3606 C.ar    
   9 C9            -0.0951    -4.5657    -3.1615 C.2     
  10 C10           -1.3324   -11.8652    -3.5297 C.3     
  11 C11           -0.3753   -10.7638    -3.0697 C.3     
  12 C12            1.2020    -2.4794    -2.5608 C.3     
  13 C13           -0.1899    -8.3928    -3.0640 C.ar    
  14 C14            0.9787    -3.9686    -2.6206 C.2     
  15 C15            0.0941    -6.0101    -3.0069 C.ar    
  16 C16            1.3282    -6.1732    -2.3527 C.ar    
  17 N17            0.7381    -1.9663    -1.2649 N.3     
  18 N18            1.8404    -4.9121    -2.1320 N.pl3   
  19 O19           -0.9216    -9.4869    -3.4059 O.3     
  20 H20            1.0039     1.9031     0.0027 H       
  21 H21           -0.5459     1.8868    -0.8726 H       
  22 H22           -0.5289     1.8773     0.9072 H       
  23 H23            1.1555    -2.1489     0.7860 H       
  24 H24            1.5602    -3.5773    -0.1960 H       
  25 H25            2.5844    -2.1237    -0.2750 H       
  26 H26            2.9565    -4.5193    -0.4003 H       
  27 H27            3.8128    -5.4441    -1.6572 H       
  28 H28            3.5319    -3.6996    -1.8718 H       
  29 H29            0.5293    -0.3651     0.8851 H       
  30 H30           -1.0205    -0.3814     0.0098 H       
  31 H31            0.1910    -0.1364    -2.1398 H       
  32 H32            1.7408    -0.1202    -1.2645 H       
  33 H33            1.3952    -9.5435    -2.1925 H       
  34 H34            2.7327    -7.5884    -1.5603 H       
  35 H35           -1.6098    -7.0087    -3.8637 H       
  36 H36           -0.9388    -4.0743    -3.6230 H       
  37 H37           -1.4683   -11.8010    -4.6093 H       
  38 H38           -0.9157   -12.8392    -3.2733 H       
  39 H39           -2.2952   -11.7401    -3.0343 H       
  40 H40           -0.2394   -10.8280    -1.9902 H       
  41 H41            0.5875   -10.8889    -3.5652 H       
  42 H42            2.2647    -2.2664    -2.6767 H       
  43 H43            0.6449    -1.9960    -3.3634 H       
@<TRIPOS>BOND
   1    1    4 1
   2    1   20 1
   3    1   21 1
   4    1   22 1
   5    2   17 1
   6    2   23 1
   7    2   24 1
   8    2   25 1
   9    3   18 1
  10    3   26 1
  11    3   27 1
  12    3   28 1
  13    4    5 1
  14    4   29 1
  15    4   30 1
  16    5   17 1
  17    5   31 1
  18    5   32 1
  19    6    7 ar
  20    6   13 ar
  21    6   33 1
  22    7   16 ar
  23    7   34 1
  24    8   13 ar
  25    8   15 ar
  26    8   35 1
  27    9   14 2
  28    9   15 1
  29    9   36 1
  30   10   11 1
  31   10   37 1
  32   10   38 1
  33   10   39 1
  34   11   19 1
  35   11   40 1
  36   11   41 1
  37   12   14 1
  38   12   17 1
  39   12   42 1
  40   12   43 1
  41   13   19 1
  42   14   18 1
  43   15   16 ar
  44   16   18 1

#	End of record

