#	Name: ASD07930493
#	Creating user name:	WinNT
#	Creation time:	15. 06. 2019 21:12

#	Modifying user name:	WinNT
#	Modification time:	15. 06. 2019 21:12

#	Program:	/corina/corina34_cracker 3.40 0067  02.08.2006

@<TRIPOS>MOLECULE
ASD07930493
  56   59    0    0    0
SMALL
NO_CHARGES


@<TRIPOS>ATOM
   1 C1            -0.0343     1.4581     0.0425 C.3     
   2 N2             0.7953    -0.4133    -2.1302 N.2     
   3 N3            -0.8904    -1.7835    -1.2685 N.pl3   
   4 C4            -0.9150    -2.8271    -0.2382 C.3     
   5 C5            -1.2300    -2.1885     1.1215 C.3     
   6 S6             0.0061    -0.8913     1.4435 S.o2    
   7 N7            -0.0141    -0.0067     0.0315 N.am    
   8 C8            -0.0113    -0.7260    -1.1551 C.2     
   9 C9             0.4500    -3.5153    -0.1755 C.3     
  10 C10           -1.9765    -3.8423    -0.5755 C.ar    
  11 C11           -2.8068    -3.6380    -1.6597 C.ar    
  12 C12           -3.7847    -4.5742    -1.9703 C.ar    
  13 C13           -3.9250    -5.7138    -1.1895 C.ar    
  14 C14           -3.0923    -5.9142    -0.1059 C.ar    
  15 C15           -2.1147    -4.9822     0.1989 C.ar    
  16 N16           -4.6276    -4.3690    -3.0685 N.am    
  17 O17           -0.4577     0.0117     2.4378 O.2     
  18 O18            1.3140    -1.4440     1.5004 O.2     
  19 F19           -1.3013    -5.1800     1.2593 F       
  20 C20           -5.0472    -5.4193    -3.8014 C.2     
  21 C21           -6.0293    -5.2176    -4.8864 C.ar    
  22 C22           -6.4599    -6.3115    -5.6425 C.ar    
  23 N23           -6.4989    -3.9990    -5.1308 N.ar    
  24 C24           -7.3727    -3.7744    -6.0850 C.ar    
  25 C25           -7.8437    -4.8148    -6.8828 C.ar    
  26 C26           -7.3819    -6.1074    -6.6576 C.ar    
  27 O27           -8.7470    -4.5706    -7.8658 O.3     
  28 C28           -9.1764    -3.2177    -8.0309 C.3     
  29 C29          -10.1864    -3.1394    -9.1775 C.3     
  30 C30          -10.8563    -1.7888    -9.4378 C.3     
  31 C31           -9.7968    -2.3166   -10.4072 C.3     
  32 F32           -5.9841    -7.5500    -5.3880 F       
  33 O33           -4.6174    -6.5328    -3.5697 O.2     
  34 H34            0.9882     1.8357     0.0394 H       
  35 H35           -0.5582     1.8209    -0.8419 H       
  36 H36           -0.5480     1.8077     0.9380 H       
  37 H37            1.4070     0.3331    -2.0331 H       
  38 H38           -1.4883    -1.8387    -2.0302 H       
  39 H39           -2.2270    -1.7484     1.0987 H       
  40 H40           -1.1800    -2.9460     1.9037 H       
  41 H41            1.2165    -2.7804     0.0705 H       
  42 H42            0.4311    -4.2908     0.5903 H       
  43 H43            0.6749    -3.9652    -1.1425 H       
  44 H44           -2.6962    -2.7508    -2.2655 H       
  45 H45           -4.6849    -6.4428    -1.4292 H       
  46 H46           -3.2011    -6.8004     0.5017 H       
  47 H47           -4.9098    -3.4709    -3.3021 H       
  48 H48           -7.7312    -2.7697    -6.2534 H       
  49 H49           -7.7307    -6.9321    -7.2615 H       
  50 H50           -9.6446    -2.8702    -7.1099 H       
  51 H51           -8.3162    -2.5890    -8.2608 H       
  52 H52          -10.7831    -4.0369    -9.3404 H       
  53 H53          -11.8937    -1.7977    -9.7724 H       
  54 H54          -10.5775    -0.9559    -8.7922 H       
  55 H55           -8.8209    -1.8311   -10.3993 H       
  56 H56          -10.1371    -2.6728   -11.3795 H       
@<TRIPOS>BOND
   1    1    7 1
   2    1   34 1
   3    1   35 1
   4    1   36 1
   5    2    8 2
   6    2   37 1
   7    3    4 1
   8    3    8 1
   9    3   38 1
  10    4    5 1
  11    4    9 1
  12    4   10 1
  13    5    6 1
  14    5   39 1
  15    5   40 1
  16    6    7 am
  17    6   17 2
  18    6   18 2
  19    7    8 1
  20    9   41 1
  21    9   42 1
  22    9   43 1
  23   10   11 ar
  24   10   15 ar
  25   11   12 ar
  26   11   44 1
  27   12   13 ar
  28   12   16 1
  29   13   14 ar
  30   13   45 1
  31   14   15 ar
  32   14   46 1
  33   15   19 1
  34   16   20 am
  35   16   47 1
  36   20   21 1
  37   20   33 2
  38   21   22 ar
  39   21   23 ar
  40   22   32 1
  41   22   26 ar
  42   23   24 ar
  43   24   25 ar
  44   24   48 1
  45   25   26 ar
  46   25   27 1
  47   26   49 1
  48   27   28 1
  49   28   29 1
  50   28   50 1
  51   28   51 1
  52   29   30 1
  53   29   31 1
  54   29   52 1
  55   30   31 1
  56   30   53 1
  57   30   54 1
  58   31   55 1
  59   31   56 1

#	End of record

