#	Name: ASD01141063
#	Creating user name:	WinNT
#	Creation time:	15. 06. 2019 19:01

#	Modifying user name:	WinNT
#	Modification time:	15. 06. 2019 19:01

#	Program:	/corina/corina34_cracker 3.40 0067  02.08.2006

@<TRIPOS>MOLECULE
ASD01141063
  41   42    0    0    0
SMALL
NO_CHARGES


@<TRIPOS>ATOM
   1 C1             0.1656     1.5470    -0.9281 C.ar    
   2 C2             0.0116     0.6114    -1.9327 C.ar    
   3 C3             1.2181     2.4639    -0.9881 C.ar    
   4 Cl4           -0.9497     1.5880     0.4016 Cl      
   5 C5             0.8965     0.5814    -2.9949 C.ar    
   6 C6             2.1069     2.4270    -2.0644 C.ar    
   7 C7             1.3897     3.4686     0.0826 C.2     
   8 C8             1.9413     1.4873    -3.0598 C.ar    
   9 C9             2.5646     4.3472     0.0827 C.2     
  10 O10            0.5564     3.5669     0.9641 O.2     
  11 C11            2.4100     5.7083    -0.1057 C.2     
  12 C12            3.9034     3.7817     0.2825 C.2     
  13 N13            3.4750     6.5298     0.0033 N.pl3   
  14 O14            4.0671     2.4451     0.3535 O.3     
  15 O15            4.8656     4.5183     0.3842 O.2     
  16 C16            3.2999     7.9131    -0.0683 C.ar    
  17 C17            4.3984     8.7583     0.0442 C.ar    
  18 C18            2.0281     8.4426    -0.2576 C.ar    
  19 C19            4.2287    10.1239    -0.0256 C.ar    
  20 C20            1.8522     9.8074    -0.3291 C.ar    
  21 C21            2.9523    10.6588    -0.2099 C.ar    
  22 H22            4.3623     6.1592     0.1313 H       
  23 C23            5.4299     1.9515     0.4387 C.3     
  24 C24            5.4227     0.4224     0.3857 C.3     
  25 C25            2.7726    12.0776    -0.2824 C.1     
  26 C26            2.6252    13.2408    -0.3418 C.1     
  27 H27           -0.8013    -0.0982    -1.8883 H       
  28 H28            0.7721    -0.1525    -3.7774 H       
  29 H29            2.9227     3.1328    -2.1170 H       
  30 H30            2.6285     1.4579    -3.8924 H       
  31 H31            1.4369     6.1140    -0.3401 H       
  32 H32            5.3855     8.3439     0.1867 H       
  33 H33            1.1775     7.7835    -0.3490 H       
  34 H34            5.0821    10.7799     0.0625 H       
  35 H35            0.8636    10.2182    -0.4717 H       
  36 H36            6.0104     2.3412    -0.3975 H       
  37 H37            5.8776     2.2804     1.3765 H       
  38 H38            6.4352     0.0488     0.5385 H       
  39 H39            4.7704     0.0348     1.1683 H       
  40 H40            5.0573     0.0943    -0.5874 H       
  41 H41            2.4934    14.2812    -0.3949 H       
@<TRIPOS>BOND
   1    1    2 ar
   2    1    3 ar
   3    1    4 1
   4    2    5 ar
   5    2   27 1
   6    3    6 ar
   7    3    7 1
   8    5    8 ar
   9    5   28 1
  10    6    8 ar
  11    6   29 1
  12    7    9 1
  13    7   10 2
  14    8   30 1
  15    9   11 2
  16    9   12 1
  17   11   13 1
  18   11   31 1
  19   12   14 1
  20   12   15 2
  21   13   16 1
  22   13   22 1
  23   14   23 1
  24   16   17 ar
  25   16   18 ar
  26   17   19 ar
  27   17   32 1
  28   18   20 ar
  29   18   33 1
  30   19   21 ar
  31   19   34 1
  32   20   21 ar
  33   20   35 1
  34   21   25 1
  35   23   24 1
  36   23   36 1
  37   23   37 1
  38   24   38 1
  39   24   39 1
  40   24   40 1
  41   25   26 3
  42   26   41 1

#	End of record

