#	Name: ASD09740241
#	Creating user name:	WinNT
#	Creation time:	15. 06. 2019 21:23

#	Modifying user name:	WinNT
#	Modification time:	15. 06. 2019 21:23

#	Program:	/corina/corina34_cracker 3.40 0067  02.08.2006

@<TRIPOS>MOLECULE
ASD09740241
  26   28    0    0    0
SMALL
NO_CHARGES


@<TRIPOS>ATOM
   1 N1            -0.0144     1.2085     0.0087 N.2     
   2 O2             0.0021    -0.0041     0.0020 O.3     
   3 C3             1.2057     1.6798    -0.0004 C.2     
   4 N4             2.0455     0.6238    -0.0141 N.2     
   5 C5             1.2699    -0.4439    -0.0124 C.2     
   6 C6             1.7129    -1.8543    -0.0243 C.ar    
   7 C7             1.5950     3.1130     0.0031 C.ar    
   8 C8             0.7713    -2.8844    -0.0208 C.ar    
   9 C9             0.6263     4.1194     0.0178 C.ar    
  10 C10            1.0315     5.4391     0.0211 C.ar    
  11 N11            2.3122     5.7539     0.0101 N.ar    
  12 C12            3.2577     4.8345    -0.0039 C.ar    
  13 C13            2.9397     3.4912    -0.0023 C.ar    
  14 C14            3.0742    -2.1610    -0.0447 C.ar    
  15 C15            3.4816    -3.4800    -0.0562 C.ar    
  16 C16            2.5429    -4.4974    -0.0473 C.ar    
  17 C17            1.1912    -4.1996    -0.0323 C.ar    
  18 Br18          -0.0829    -5.5969    -0.0204 Br      
  19 Br19           5.3256    -3.8978    -0.0845 Br      
  20 H20           -0.2836    -2.6532    -0.0087 H       
  21 H21           -0.4242     3.8688     0.0261 H       
  22 H22            0.2899     6.2241     0.0324 H       
  23 H23            4.2946     5.1366    -0.0129 H       
  24 H24            3.7191     2.7436    -0.0135 H       
  25 H25            3.8074    -1.3681    -0.0520 H       
  26 H26            2.8665    -5.5278    -0.0567 H       
@<TRIPOS>BOND
   1    1    2 1
   2    1    3 2
   3    2    5 1
   4    3    4 1
   5    3    7 1
   6    4    5 2
   7    5    6 1
   8    6    8 ar
   9    6   14 ar
  10    7    9 ar
  11    7   13 ar
  12    8   17 ar
  13    8   20 1
  14    9   10 ar
  15    9   21 1
  16   10   11 ar
  17   10   22 1
  18   11   12 ar
  19   12   13 ar
  20   12   23 1
  21   13   24 1
  22   14   15 ar
  23   14   25 1
  24   15   16 ar
  25   15   19 1
  26   16   17 ar
  27   16   26 1
  28   17   18 1

#	End of record

