#	Name: ASD03930064
#	Creating user name:	WinNT
#	Creation time:	15. 06. 2019 20:47

#	Modifying user name:	WinNT
#	Modification time:	15. 06. 2019 20:47

#	Program:	/corina/corina34_cracker 3.40 0067  02.08.2006

@<TRIPOS>MOLECULE
ASD03930064
  34   37    0    0    0
SMALL
NO_CHARGES


@<TRIPOS>ATOM
   1 C1            -0.0164     1.3596     0.0095 C.ar    
   2 C2             0.0021    -0.0041     0.0020 C.ar    
   3 C3             1.2077    -0.7149    -0.0024 C.ar    
   4 C4             2.4144    -0.0339     0.0001 C.ar    
   5 C5             2.3854     1.3752    -0.0149 C.ar    
   6 C6             1.1880     2.0747     0.0019 C.ar    
   7 C7             3.7225    -0.7700     0.0489 C.3     
   8 N8             4.8098    -0.0535    -0.6240 N.am    
   9 S9             5.1708     1.5060    -0.1379 S.o2    
  10 C10            3.5585     2.2630    -0.0690 C.2     
  11 S11            1.5223     3.8010     0.0066 S.3     
  12 C12            3.2569     3.5391    -0.0545 C.2     
  13 O13            5.6548     1.4281     1.1958 O.2     
  14 O14            5.8790     2.1240    -1.2037 O.2     
  15 C15            1.1937    -2.1987    -0.0091 C.ar    
  16 C16            0.4132    -2.8948     0.9117 C.ar    
  17 C17            0.4040    -4.2749     0.9009 C.ar    
  18 C18            1.1679    -4.9670    -0.0214 C.ar    
  19 C19            1.9445    -4.2810    -0.9378 C.ar    
  20 C20            1.9565    -2.9009    -0.9401 C.ar    
  21 C21            5.5675    -0.6920    -1.7030 C.3     
  22 H22           -0.9586     1.8876     0.0169 H       
  23 H23           -0.9320    -0.5461    -0.0002 H       
  24 H24            3.9982    -0.9263     1.0918 H       
  25 H25            3.5957    -1.7422    -0.4274 H       
  26 H26            3.9881     4.3337    -0.0768 H       
  27 H27           -0.1830    -2.3554     1.6328 H       
  28 H28           -0.2005    -4.8154     1.6142 H       
  29 H29            1.1583    -6.0469    -0.0259 H       
  30 H30            2.5390    -4.8264    -1.6558 H       
  31 H31            2.5632    -2.3663    -1.6560 H       
  32 H32            5.0867    -0.4816    -2.6584 H       
  33 H33            6.5846    -0.3002    -1.7140 H       
  34 H34            5.5948    -1.7694    -1.5396 H       
@<TRIPOS>BOND
   1    1    2 ar
   2    1    6 ar
   3    1   22 1
   4    2    3 ar
   5    2   23 1
   6    3    4 ar
   7    3   15 1
   8    4    5 ar
   9    4    7 1
  10    5    6 ar
  11    5   10 1
  12    6   11 1
  13    7    8 1
  14    7   24 1
  15    7   25 1
  16    8    9 am
  17    8   21 1
  18    9   10 1
  19    9   13 2
  20    9   14 2
  21   10   12 2
  22   11   12 1
  23   12   26 1
  24   15   16 ar
  25   15   20 ar
  26   16   17 ar
  27   16   27 1
  28   17   18 ar
  29   17   28 1
  30   18   19 ar
  31   18   29 1
  32   19   20 ar
  33   19   30 1
  34   20   31 1
  35   21   32 1
  36   21   33 1
  37   21   34 1

#	End of record

