#	Name: ASD00450070
#	Creating user name:	WinNT
#	Creation time:	15. 06. 2019 18:36

#	Modifying user name:	WinNT
#	Modification time:	15. 06. 2019 18:36

#	Program:	/corina/corina34_cracker 3.40 0067  02.08.2006

@<TRIPOS>MOLECULE
ASD00450070
  55   57    0    0    0
SMALL
NO_CHARGES


@<TRIPOS>ATOM
   1 C1             0.0635     1.5098     0.5947 C.ar    
   2 C2             0.2230     0.6045     1.6347 C.ar    
   3 C3            -0.8857     0.0217     2.2183 C.ar    
   4 C4            -2.1542     0.3389     1.7678 C.ar    
   5 C5            -2.3183     1.2408     0.7313 C.ar    
   6 C6            -1.2138     1.8320     0.1468 C.ar    
   7 F7            -1.3737     2.7126    -0.8652 F       
   8 I8            -3.8310    -0.5487     2.6562 I       
   9 N9             1.1842     2.1013     0.0020 N.pl3   
  10 C10            2.4216     1.4741     0.0763 C.ar    
  11 C11            3.6024     2.2264    -0.0454 C.ar    
  12 C12            4.8459     1.5801     0.0319 C.ar    
  13 C13            4.8986     0.2112     0.2269 C.ar    
  14 C14            3.7289    -0.5232     0.3454 C.ar    
  15 C15            2.4967     0.1036     0.2765 C.ar    
  16 F16            3.7921    -1.8594     0.5351 F       
  17 C17            3.5355     3.6804    -0.2529 C.2     
  18 N18            3.4912     4.1814    -1.5033 N.am    
  19 O19            3.5202     4.4313     0.7041 O.2     
  20 O20            5.9927     2.2954    -0.0845 O.3     
  21 C21            7.2211     1.5707     0.0042 C.3     
  22 C22            8.3963     2.5384    -0.1487 C.3     
  23 N23            8.3912     3.1219    -1.4982 N.am    
  24 C24            8.2254     4.5822    -1.3811 C.3     
  25 C25            8.7417     4.9274     0.0380 C.3     
  26 C26            8.2518     3.7023     0.8543 C.3     
  27 S27            8.5468     2.2788    -2.9149 S.o2    
  28 N28            7.0221     1.8554    -3.4034 N.am    
  29 C29            6.2567     2.7512    -4.2740 C.3     
  30 O30            9.0354     3.2010    -3.8792 O.2     
  31 O31            9.2147     1.0674    -2.5897 O.2     
  32 C32            6.4387     0.5852    -2.9649 C.3     
  33 H33            1.2129     0.3555     1.9874 H       
  34 H34           -0.7615    -0.6830     3.0272 H       
  35 H35           -3.3102     1.4863     0.3814 H       
  36 H36            1.0973     2.9494    -0.4607 H       
  37 H37            5.8549    -0.2871     0.2865 H       
  38 H38            1.5911    -0.4773     0.3704 H       
  39 H39            3.5034     3.5827    -2.2664 H       
  40 H40            3.4471     5.1407    -1.6401 H       
  41 H41            7.2818     1.0758     0.9735 H       
  42 H42            7.2603     0.8235    -0.7884 H       
  43 H43            9.3349     2.0117     0.0238 H       
  44 H44            8.8219     5.0934    -2.1367 H       
  45 H45            7.1743     4.8536    -1.4788 H       
  46 H46            9.8294     4.9965     0.0519 H       
  47 H47            8.2886     5.8482     0.4053 H       
  48 H48            7.2107     3.8282     1.1515 H       
  49 H49            8.8861     3.5411     1.7260 H       
  50 H50            6.8494     3.6395    -4.4925 H       
  51 H51            6.0171     2.2364    -5.2044 H       
  52 H52            5.3342     3.0442    -3.7729 H       
  53 H53            5.8997     0.7365    -2.0296 H       
  54 H54            5.7496     0.2198    -3.7263 H       
  55 H55            7.2327    -0.1459    -2.8125 H       
@<TRIPOS>BOND
   1    1    2 ar
   2    1    9 1
   3    1    6 ar
   4    2    3 ar
   5    2   33 1
   6    3    4 ar
   7    3   34 1
   8    4    5 ar
   9    4    8 1
  10    5    6 ar
  11    5   35 1
  12    6    7 1
  13    9   10 1
  14    9   36 1
  15   10   11 ar
  16   10   15 ar
  17   11   12 ar
  18   11   17 1
  19   12   13 ar
  20   12   20 1
  21   13   14 ar
  22   13   37 1
  23   14   15 ar
  24   14   16 1
  25   15   38 1
  26   17   18 am
  27   17   19 2
  28   18   39 1
  29   18   40 1
  30   20   21 1
  31   21   22 1
  32   21   41 1
  33   21   42 1
  34   22   23 1
  35   22   26 1
  36   22   43 1
  37   23   24 1
  38   23   27 am
  39   24   25 1
  40   24   44 1
  41   24   45 1
  42   25   26 1
  43   25   46 1
  44   25   47 1
  45   26   48 1
  46   26   49 1
  47   27   28 am
  48   27   30 2
  49   27   31 2
  50   28   29 1
  51   28   32 1
  52   29   50 1
  53   29   51 1
  54   29   52 1
  55   32   53 1
  56   32   54 1
  57   32   55 1

#	End of record

