#	Name: ASD01028774
#	Creating user name:	WinNT
#	Creation time:	15. 06. 2019 18:58

#	Modifying user name:	WinNT
#	Modification time:	15. 06. 2019 18:58

#	Program:	/corina/corina34_cracker 3.40 0067  02.08.2006

@<TRIPOS>MOLECULE
ASD01028774
  16   17    0    0    0
SMALL
NO_CHARGES


@<TRIPOS>ATOM
   1 N1            -0.0157     1.3065     0.0092 N.ar    
   2 C2             0.0021    -0.0041     0.0020 C.ar    
   3 C3             1.1999    -0.7188    -0.0128 C.ar    
   4 C4             2.3921    -0.0524    -0.0206 C.ar    
   5 C5             2.3684     1.3563    -0.0132 C.ar    
   6 N6             3.4994     2.0663    -0.0197 N.ar    
   7 C7             3.4813     3.3777    -0.0125 C.ar    
   8 C8             2.2861     4.0918     0.0022 C.ar    
   9 C9             1.0923     3.4258     0.0095 C.ar    
  10 C10            1.1154     2.0158     0.0022 C.ar    
  11 Cl11          -0.4118     4.2925     0.0284 Cl      
  12 Br12           1.1730    -2.6096    -0.0215 Br      
  13 H13           -0.9334    -0.5437     0.0081 H       
  14 H14            3.3282    -0.5910    -0.0317 H       
  15 H15            4.4169     3.9171    -0.0178 H       
  16 H16            2.3022     5.1717     0.0082 H       
@<TRIPOS>BOND
   1    1    2 ar
   2    1   10 ar
   3    2    3 ar
   4    2   13 1
   5    3    4 ar
   6    3   12 1
   7    4    5 ar
   8    4   14 1
   9    5    6 ar
  10    5   10 ar
  11    6    7 ar
  12    7    8 ar
  13    7   15 1
  14    8    9 ar
  15    8   16 1
  16    9   10 ar
  17    9   11 1

#	End of record

