#	Name: ASD08178484
#	Creating user name:	WinNT
#	Creation time:	15. 06. 2019 21:19

#	Modifying user name:	WinNT
#	Modification time:	15. 06. 2019 21:19

#	Program:	/corina/corina34_cracker 3.40 0067  02.08.2006

@<TRIPOS>MOLECULE
ASD08178484
  65   68    0    0    0
SMALL
NO_CHARGES


@<TRIPOS>ATOM
   1 C1            -4.0297    -3.8116     2.1778 C.ar    
   2 C2            -4.1781    -2.5051     1.7536 C.ar    
   3 C3            -5.2437    -1.7479     2.2033 C.ar    
   4 C4            -6.1639    -2.2959     3.0782 C.ar    
   5 C5            -6.0200    -3.6016     3.5052 C.ar    
   6 C6            -4.9513    -4.3636     3.0553 C.ar    
   7 C7            -3.1772    -1.9048     0.8003 C.3     
   8 C8            -3.6241    -2.1506    -0.6178 C.2     
   9 N9            -2.8793    -1.7001    -1.6468 N.am    
  10 O10           -4.6540    -2.7538    -0.8331 O.2     
  11 C11           -3.2345    -2.0193    -2.9569 C.ar    
  12 C12           -2.5318    -1.4683    -4.0266 C.ar    
  13 N13           -4.2379    -2.8521    -3.1901 N.ar    
  14 N14           -4.5958    -3.1718    -4.3804 N.ar    
  15 C15           -3.9903    -2.6941    -5.4499 C.ar    
  16 C16           -2.9239    -1.8179    -5.3099 C.ar    
  17 C17           -4.4528    -3.1046    -6.8242 C.3     
  18 C18           -4.4424    -4.6308    -6.9311 C.3     
  19 C19           -4.9120    -5.0475    -8.3263 C.3     
  20 C20           -4.9016    -6.5738    -8.4332 C.3     
  21 C21           -5.3641    -6.9842    -9.8075 C.2     
  22 N22           -4.6104    -7.1621   -10.8457 N.2     
  23 N23           -5.1907    -7.5073   -11.9125 N.2     
  24 C24           -6.4809    -7.6528   -11.8772 C.2     
  25 S25           -7.0282    -7.3162   -10.2892 S.3     
  26 N26           -7.2842    -8.0257   -12.9495 N.am    
  27 C27           -6.7302    -8.2704   -14.1535 C.2     
  28 C28           -7.6007    -8.6745   -15.3154 C.3     
  29 O29           -5.5310    -8.1654   -14.3019 O.2     
  30 C30           -6.7426    -8.8871   -16.5359 C.2     
  31 C31           -6.1635   -10.0518   -16.9089 C.2     
  32 N32           -5.4826    -9.8251   -18.0518 N.pl3   
  33 N33           -5.6487    -8.4765   -18.3924 N.2     
  34 C34           -6.4090    -7.9168   -17.4865 C.2     
  35 C35           -4.7063   -10.8145   -18.8032 C.3     
  36 O36           -4.8078    -5.6486     3.4737 O.3     
  37 C37           -5.7945    -6.1508     4.3772 C.3     
  38 F38           -7.0544    -6.0910     3.7721 F       
  39 F39           -5.4961    -7.4782     4.7028 F       
  40 F40           -5.7989    -5.3747     5.5412 F       
  41 H41           -3.1993    -4.4041     1.8230 H       
  42 H42           -5.3576    -0.7266     1.8711 H       
  43 H43           -6.9956    -1.7023     3.4281 H       
  44 H44           -6.7385    -4.0288     4.1890 H       
  45 H45           -3.1048    -0.8318     0.9776 H       
  46 H46           -2.2024    -2.3659     0.9591 H       
  47 H47           -2.0963    -1.1537    -1.4760 H       
  48 H48           -1.7078    -0.7900    -3.8614 H       
  49 H49           -2.4167    -1.4167    -6.1748 H       
  50 H50           -5.4645    -2.7354    -6.9924 H       
  51 H51           -3.7830    -2.6833    -7.5739 H       
  52 H52           -3.4307    -4.9999    -6.7629 H       
  53 H53           -5.1122    -5.0521    -6.1814 H       
  54 H54           -5.9237    -4.6784    -8.4945 H       
  55 H55           -4.2422    -4.6262    -9.0760 H       
  56 H56           -3.8899    -6.9429    -8.2650 H       
  57 H57           -5.5713    -6.9951    -7.6836 H       
  58 H58           -8.2433    -8.1097   -12.8309 H       
  59 H59           -8.1235    -9.5997   -15.0732 H       
  60 H60           -8.3281    -7.8877   -15.5153 H       
  61 H61           -6.2334   -10.9939   -16.3855 H       
  62 H62           -6.7190    -6.8823   -17.4712 H       
  63 H63           -5.3502   -11.3013   -19.5358 H       
  64 H64           -3.8834   -10.3171   -19.3165 H       
  65 H65           -4.3079   -11.5614   -18.1166 H       
@<TRIPOS>BOND
   1    1    2 ar
   2    1    6 ar
   3    1   41 1
   4    2    3 ar
   5    2    7 1
   6    3    4 ar
   7    3   42 1
   8    4    5 ar
   9    4   43 1
  10    5    6 ar
  11    5   44 1
  12    6   36 1
  13    7    8 1
  14    7   45 1
  15    7   46 1
  16    8    9 am
  17    8   10 2
  18    9   11 1
  19    9   47 1
  20   11   12 ar
  21   11   13 ar
  22   12   16 ar
  23   12   48 1
  24   13   14 ar
  25   14   15 ar
  26   15   16 ar
  27   15   17 1
  28   16   49 1
  29   17   18 1
  30   17   50 1
  31   17   51 1
  32   18   19 1
  33   18   52 1
  34   18   53 1
  35   19   20 1
  36   19   54 1
  37   19   55 1
  38   20   21 1
  39   20   56 1
  40   20   57 1
  41   21   22 2
  42   21   25 1
  43   22   23 1
  44   23   24 2
  45   24   25 1
  46   24   26 1
  47   26   27 am
  48   26   58 1
  49   27   28 1
  50   27   29 2
  51   28   30 1
  52   28   59 1
  53   28   60 1
  54   30   31 2
  55   30   34 1
  56   31   32 1
  57   31   61 1
  58   32   33 1
  59   32   35 1
  60   33   34 2
  61   34   62 1
  62   35   63 1
  63   35   64 1
  64   35   65 1
  65   36   37 1
  66   37   38 1
  67   37   39 1
  68   37   40 1

#	End of record

