#	Name: ASD00171056
#	Creating user name:	WinNT
#	Creation time:	15. 06. 2019 18:32

#	Modifying user name:	WinNT
#	Modification time:	15. 06. 2019 18:32

#	Program:	/corina/corina34_cracker 3.40 0067  02.08.2006

@<TRIPOS>MOLECULE
ASD00171056
  58   61    0    0    0
SMALL
NO_CHARGES


@<TRIPOS>ATOM
   1 C1            -0.0290     1.2276     0.0646 C.ar    
   2 C2             0.0204    -0.1641     0.0678 C.ar    
   3 C3            -1.1345    -0.8931     0.0759 C.ar    
   4 C4            -2.3745    -0.2426     0.0804 C.ar    
   5 C5            -2.4270     1.1577     0.0772 C.ar    
   6 C6            -1.2589     1.8853     0.0749 C.ar    
   7 Cl7           -1.3161     3.6204     0.0714 Cl      
   8 C8            -3.6167    -1.0259     0.0881 C.2     
   9 C9            -4.8122    -0.3965     0.0925 C.2     
  10 C10           -6.0485    -1.1760     0.1002 C.2     
  11 N11           -7.2380    -0.5520     0.2102 N.am    
  12 O12           -6.0038    -2.3890     0.0072 O.2     
  13 C13           -7.3034     0.8982     0.4396 C.3     
  14 C14           -8.1642     1.5301    -0.6612 C.3     
  15 N15           -9.4191     0.7728    -0.7691 N.am    
  16 C16           -9.3536    -0.6774    -0.9985 C.3     
  17 C17           -8.4928    -1.3085     0.0967 C.3     
  18 S18            1.4661     2.1599     0.0547 S.3     
  19 C19            2.7080     0.9189     0.2034 C.ar    
  20 C20          -10.6086     1.3968    -0.6591 C.2     
  21 C21          -11.8836     0.5934    -0.6564 C.3     
  22 O22          -10.6529     2.6050    -0.5623 O.2     
  23 C23            3.3174     0.4144    -0.9307 C.ar    
  24 C24            4.3009    -0.5689    -0.8054 C.ar    
  25 C25            4.6661    -1.0402     0.4684 C.ar    
  26 C26            4.0417    -0.5200     1.5978 C.ar    
  27 C27            3.0773     0.4527     1.4651 C.ar    
  28 C28            5.1295    -1.3054    -1.7632 C.2     
  29 C29            5.9077    -2.1365    -1.0520 C.2     
  30 N30            5.6458    -1.9930     0.2830 N.pl3   
  31 C31            6.3077    -2.7396     1.3557 C.3     
  32 C32            5.4731    -3.9400     1.7212 C.2     
  33 O33            5.8861    -4.7756     2.6871 O.3     
  34 O34            4.4323    -4.1503     1.1447 O.2     
  35 H35            0.9752    -0.6686     0.0636 H       
  36 H36           -1.0913    -1.9722     0.0784 H       
  37 H37           -3.3809     1.6642     0.0806 H       
  38 H38           -3.5746    -2.1051     0.0903 H       
  39 H39           -4.8543     0.6827     0.0903 H       
  40 H40           -7.7525     1.0946     1.4132 H       
  41 H41           -6.2988     1.3196     0.4057 H       
  42 H42           -8.3834     2.5666    -0.4045 H       
  43 H43           -7.6305     1.4909    -1.6108 H       
  44 H44          -10.3582    -1.0988    -0.9646 H       
  45 H45           -8.9045    -0.8738    -1.9721 H       
  46 H46           -8.2745    -2.3448    -0.1612 H       
  47 H47           -9.0244    -1.2698     1.0475 H       
  48 H48          -11.6528    -0.4550    -0.8454 H       
  49 H49          -12.3712     0.6890     0.3138 H       
  50 H50          -12.5489     0.9652    -1.4356 H       
  51 H51            3.0343     0.7784    -1.9073 H       
  52 H52            4.3166    -0.8772     2.5792 H       
  53 H53            2.5961     0.8527     2.3453 H       
  54 H54            5.1164    -1.2000    -2.8379 H       
  55 H55            6.6332    -2.8176    -1.4717 H       
  56 H56            7.2897    -3.0694     1.0165 H       
  57 H57            6.4218    -2.0970     2.2287 H       
  58 H58            5.3172    -5.5317     2.8863 H       
@<TRIPOS>BOND
   1    1    2 ar
   2    1   18 1
   3    1    6 ar
   4    2    3 ar
   5    2   35 1
   6    3    4 ar
   7    3   36 1
   8    4    5 ar
   9    4    8 1
  10    5    6 ar
  11    5   37 1
  12    6    7 1
  13    8    9 2
  14    8   38 1
  15    9   10 1
  16    9   39 1
  17   10   11 am
  18   10   12 2
  19   11   13 1
  20   11   17 1
  21   13   14 1
  22   13   40 1
  23   13   41 1
  24   14   15 1
  25   14   42 1
  26   14   43 1
  27   15   16 1
  28   15   20 am
  29   16   17 1
  30   16   44 1
  31   16   45 1
  32   17   46 1
  33   17   47 1
  34   18   19 1
  35   19   23 ar
  36   19   27 ar
  37   20   21 1
  38   20   22 2
  39   21   48 1
  40   21   49 1
  41   21   50 1
  42   23   24 ar
  43   23   51 1
  44   24   25 ar
  45   24   28 1
  46   25   26 ar
  47   25   30 1
  48   26   27 ar
  49   26   52 1
  50   27   53 1
  51   28   29 2
  52   28   54 1
  53   29   30 1
  54   29   55 1
  55   30   31 1
  56   31   32 1
  57   31   56 1
  58   31   57 1
  59   32   33 1
  60   32   34 2
  61   33   58 1

#	End of record

