#	Name: ASD04590864
#	Creating user name:	WinNT
#	Creation time:	15. 06. 2019 20:51

#	Modifying user name:	WinNT
#	Modification time:	15. 06. 2019 20:51

#	Program:	/corina/corina34_cracker 3.40 0067  02.08.2006

@<TRIPOS>MOLECULE
ASD04590864
  54   58    0    0    0
SMALL
NO_CHARGES


@<TRIPOS>ATOM
   1 N1            -0.0170     1.3232    -0.0111 N.ar    
   2 C2             0.0017    -0.0035    -0.0048 C.ar    
   3 N3             1.1299    -0.6949    -0.0117 N.ar    
   4 C4             2.3050    -0.0729    -0.0258 C.ar    
   5 C5             2.3189     1.3365    -0.0332 C.ar    
   6 C6             1.1072     2.0202    -0.0250 C.ar    
   7 N7             3.6031    -0.5196    -0.0356 N.pl3   
   8 C8             4.4823     0.5494    -0.0492 C.ar    
   9 C9             3.7313     1.7384    -0.0484 C.ar    
  10 C10            5.8681     0.6417    -0.0621 C.ar    
  11 N11            6.4613     1.8180    -0.0729 N.ar    
  12 C12            5.7851     2.9532    -0.0724 C.ar    
  13 C13            4.4064     2.9584    -0.0613 C.ar    
  14 N14           -1.2019    -0.6887     0.0098 N.pl3   
  15 C15           -2.4022     0.0122     0.1304 C.ar    
  16 N16           -2.3891     1.3195     0.3310 N.ar    
  17 N17           -3.4683     2.0042     0.4478 N.ar    
  18 C18           -4.6668     1.4483     0.3753 C.ar    
  19 C19           -4.7831     0.0733     0.1655 C.ar    
  20 C20           -3.6194    -0.6637     0.0338 C.ar    
  21 N21           -5.8099     2.2334     0.5087 N.pl3   
  22 C22            4.0018    -1.9293    -0.0315 C.3     
  23 C23            3.4003    -2.6450     1.1956 C.3     
  24 C24            3.4384    -2.6399    -1.2747 C.3     
  25 C25            2.5143    -3.7627    -0.7596 C.3     
  26 C26            2.1010    -3.2942     0.6577 C.3     
  27 C27           -7.1360     1.6161     0.4282 C.3     
  28 C28           -8.2105     2.6908     0.6054 C.3     
  29 O29           -8.0528     3.3163     1.8805 O.3     
  30 C30           -9.5954     2.0461     0.5214 C.3     
  31 H31            1.0849     3.0999    -0.0300 H       
  32 H32            6.4645    -0.2587    -0.0630 H       
  33 H33            6.3204     3.8911    -0.0815 H       
  34 H34            3.8597     3.8898    -0.0610 H       
  35 H35           -1.2103    -1.6559    -0.0637 H       
  36 H36           -5.7518    -0.4003     0.1036 H       
  37 H37           -3.6520    -1.7307    -0.1299 H       
  38 H38           -5.7277     3.1888     0.6549 H       
  39 H39            5.0887    -2.0096    -0.0160 H       
  40 H40            4.0842    -3.4094     1.5645 H       
  41 H41            3.1704    -1.9260     1.9818 H       
  42 H42            2.8684    -1.9359    -1.8810 H       
  43 H43            4.2519    -3.0658    -1.8620 H       
  44 H44            1.6378    -3.8592    -1.4003 H       
  45 H45            3.0551    -4.7075    -0.7065 H       
  46 H46            1.8090    -4.1435     1.2754 H       
  47 H47            1.2967    -2.5605     0.6027 H       
  48 H48           -7.2562     1.1389    -0.5444 H       
  49 H49           -7.2370     0.8682     1.2147 H       
  50 H50           -8.1095     3.4386    -0.1811 H       
  51 H51           -8.7019     4.0099     2.0613 H       
  52 H52           -9.6964     1.2982     1.3079 H       
  53 H53          -10.3609     2.8117     0.6476 H       
  54 H54           -9.7157     1.5689    -0.4513 H       
@<TRIPOS>BOND
   1    1    2 ar
   2    1    6 ar
   3    2    3 ar
   4    2   14 1
   5    3    4 ar
   6    4    5 ar
   7    4    7 1
   8    5    6 ar
   9    5    9 1
  10    6   31 1
  11    7    8 1
  12    7   22 1
  13    8    9 ar
  14    8   10 ar
  15    9   13 ar
  16   10   11 ar
  17   10   32 1
  18   11   12 ar
  19   12   13 ar
  20   12   33 1
  21   13   34 1
  22   14   15 1
  23   14   35 1
  24   15   16 ar
  25   15   20 ar
  26   16   17 ar
  27   17   18 ar
  28   18   19 ar
  29   18   21 1
  30   19   20 ar
  31   19   36 1
  32   20   37 1
  33   21   27 1
  34   21   38 1
  35   22   24 1
  36   22   23 1
  37   22   39 1
  38   23   26 1
  39   23   40 1
  40   23   41 1
  41   24   25 1
  42   24   42 1
  43   24   43 1
  44   25   26 1
  45   25   44 1
  46   25   45 1
  47   26   46 1
  48   26   47 1
  49   27   28 1
  50   27   48 1
  51   27   49 1
  52   28   29 1
  53   28   30 1
  54   28   50 1
  55   29   51 1
  56   30   52 1
  57   30   53 1
  58   30   54 1

#	End of record

