#	Name: ASD02198170
#	Creating user name:	WinNT
#	Creation time:	15. 06. 2019 20:18

#	Modifying user name:	WinNT
#	Modification time:	15. 06. 2019 20:18

#	Program:	/corina/corina34_cracker 3.40 0067  02.08.2006

@<TRIPOS>MOLECULE
ASD02198170
  40   42    0    0    0
SMALL
NO_CHARGES


@<TRIPOS>ATOM
   1 C1             0.5447     1.3796    -0.6343 C.2     
   2 C2             0.4581     0.0059    -0.5463 C.2     
   3 C3            -0.7748    -0.6854    -0.3168 C.1     
   4 S4             2.1534     1.8711    -0.9121 S.3     
   5 C5             2.7298     0.2121    -0.9121 C.2     
   6 C6             1.6780    -0.6485    -0.7012 C.2     
   7 C7             4.0689    -0.1786    -1.1004 C.2     
   8 C8             5.0903     0.8298    -1.4614 C.ar    
   9 O9             4.3875    -1.3480    -0.9660 O.2     
  10 N10            1.8175    -2.0264    -0.6483 N.pl3   
  11 N11           -0.5242     2.2375    -0.5193 N.pl3   
  12 N12           -1.7528    -1.2338    -0.1347 N.1     
  13 C13            4.7327     1.9528    -2.2086 C.ar    
  14 C14           -0.3123     3.6207    -0.4997 C.ar    
  15 C15           -1.2283     4.4726    -1.1032 C.ar    
  16 C16            5.6894     2.8894    -2.5415 C.ar    
  17 C17            7.0010     2.7171    -2.1360 C.ar    
  18 C18            7.3621     1.6057    -1.3953 C.ar    
  19 C19            6.4137     0.6647    -1.0510 C.ar    
  20 C20           -1.0184     5.8372    -1.0834 C.ar    
  21 C21            0.1069     6.3574    -0.4610 C.ar    
  22 C22            1.0224     5.5073     0.1421 C.ar    
  23 C23            0.8112     4.1428     0.1283 C.ar    
  24 O24            0.3130     7.7014    -0.4423 O.3     
  25 F25            1.4645     7.7731     1.5579 F       
  26 C26            1.4925     8.1678     0.2160 C.3     
  27 F27            2.6205     7.6230    -0.4068 F       
  28 H28            2.6921    -2.4301    -0.7629 H       
  29 H29            1.0407    -2.5871    -0.4966 H       
  30 H30           -1.4249     1.8838    -0.4517 H       
  31 H31            3.7093     2.0882    -2.5260 H       
  32 H32           -2.1043     4.0678    -1.5881 H       
  33 H33            5.4141     3.7588    -3.1201 H       
  34 H34            7.7462     3.4532    -2.3991 H       
  35 H35            8.3877     1.4766    -1.0824 H       
  36 H36            6.6968    -0.2025    -0.4728 H       
  37 H37           -1.7304     6.4998    -1.5530 H       
  38 H38            1.8984     5.9131     0.6262 H       
  39 H39            1.5239     3.4811     0.5978 H       
  40 H40            1.5350     9.2554     0.1580 H       
@<TRIPOS>BOND
   1    1    2 2
   2    1    4 1
   3    1   11 1
   4    2    3 1
   5    2    6 1
   6    3   12 3
   7    4    5 1
   8    5    6 2
   9    5    7 1
  10    6   10 1
  11    7    8 1
  12    7    9 2
  13    8   13 ar
  14    8   19 ar
  15   10   28 1
  16   10   29 1
  17   11   14 1
  18   11   30 1
  19   13   16 ar
  20   13   31 1
  21   14   15 ar
  22   14   23 ar
  23   15   20 ar
  24   15   32 1
  25   16   17 ar
  26   16   33 1
  27   17   18 ar
  28   17   34 1
  29   18   19 ar
  30   18   35 1
  31   19   36 1
  32   20   21 ar
  33   20   37 1
  34   21   22 ar
  35   21   24 1
  36   22   23 ar
  37   22   38 1
  38   23   39 1
  39   24   26 1
  40   25   26 1
  41   26   27 1
  42   26   40 1

#	End of record

