#	Name: ASD04690003
#	Creating user name:	WinNT
#	Creation time:	15. 06. 2019 20:52

#	Modifying user name:	WinNT
#	Modification time:	15. 06. 2019 20:52

#	Program:	/corina/corina34_cracker 3.40 0067  02.08.2006

@<TRIPOS>MOLECULE
ASD04690003
 145  145    0    0    0
SMALL
NO_CHARGES


@<TRIPOS>ATOM
   1 C1            -0.0187     1.5258     0.0104 C.3     
   2 C2             0.0021    -0.0041     0.0020 C.3     
   3 C3             0.7421    -0.5109     1.2415 C.3     
   4 C4             0.0259    -0.0175     2.5003 C.3     
   5 C5             0.0052     1.5124     2.5088 C.3     
   6 C6            -0.7348     2.0192     1.2692 C.3     
   7 O7             1.3220     2.0204     0.0003 O.3     
   8 O8            -1.3386    -0.4987     0.0122 O.3     
   9 O9            -0.7542     3.4480     1.2771 O.3     
  10 P10           -2.1162     4.3064     1.2947 P.3     
  11 O11           -3.0087     3.8806     0.1077 O.co2   
  12 O12           -2.8674     4.0531     2.6208 O.co2   
  13 O13           -1.7651     5.8725     1.1675 O.3     
  14 O14            0.7614    -1.9398     1.2337 O.3     
  15 O15           -1.3147    -0.5121     2.5105 O.3     
  16 O16           -0.6637     1.9732     3.6845 O.3     
  17 C17           -2.7646     6.8870     1.0491 C.3     
  18 C18           -2.0911     8.2571     0.9485 C.3     
  19 C19           -1.1585     8.4561     2.1450 C.3     
  20 O20           -0.2178     7.3523     2.2143 O.3     
  21 C21            0.6763     7.3754     3.2152 C.2     
  22 C22            1.6843     6.2634     3.3510 C.3     
  23 C23            2.5778     6.5303     4.5640 C.3     
  24 C24            3.6011     5.4013     4.7019 C.3     
  25 C25            4.4946     5.6683     5.9149 C.3     
  26 C26            5.5180     4.5393     6.0528 C.3     
  27 C27            6.4115     4.8062     7.2657 C.3     
  28 C28            7.4349     3.6772     7.4037 C.3     
  29 C29            8.3284     3.9442     8.6166 C.3     
  30 C30            9.3517     2.8152     8.7545 C.3     
  31 C31           10.2453     3.0821     9.9675 C.3     
  32 C32           11.2686     1.9531    10.1054 C.3     
  33 C33           12.1621     2.2201    11.3184 C.3     
  34 C34           13.1855     1.0911    11.4563 C.3     
  35 C35           14.0790     1.3580    12.6692 C.3     
  36 C36           15.1024     0.2290    12.8072 C.3     
  37 C37           15.9959     0.4960    14.0201 C.3     
  38 C38           17.0192    -0.6330    14.1580 C.3     
  39 O39            0.6729     8.2878     4.0073 O.2     
  40 O40           -1.3227     8.3296    -0.2813 O.3     
  41 C41           -1.9582     8.7888    -1.3708 C.2     
  42 C42           -1.2250     8.8922    -2.6833 C.3     
  43 O43           -3.1182     9.1193    -1.2992 O.2     
  44 C44           -2.1707     9.4400    -3.7541 C.3     
  45 C45           -1.4262     9.5449    -5.0866 C.3     
  46 C46           -2.3577    10.0844    -6.1413 C.2     
  47 C47           -2.0246    11.1502    -6.8263 C.2     
  48 C48           -2.9561    11.6897    -7.8810 C.3     
  49 C49           -3.2500    13.1402    -7.5972 C.2     
  50 C50           -3.0291    14.0456    -8.5178 C.2     
  51 C51           -3.3230    15.4962    -8.2339 C.3     
  52 C52           -2.0865    16.3187    -8.4899 C.2     
  53 C53           -2.1349    17.3346    -9.3155 C.2     
  54 C54           -0.8984    18.1572    -9.5715 C.3     
  55 C55           -0.6176    18.2016   -11.0748 C.3     
  56 C56            0.6377    19.0367   -11.3347 C.3     
  57 C57            0.9186    19.0812   -12.8380 C.3     
  58 C58            2.1739    19.9163   -13.0979 C.3     
  59 C59            2.4547    19.9607   -14.6012 C.3     
  60 C60            3.7101    20.7958   -14.8611 C.3     
  61 C61            3.9909    20.8402   -16.3645 C.3     
  62 H62           -0.5459     1.8868    -0.8726 H       
  63 H63            0.5123    -0.3556    -0.8948 H       
  64 H64            1.7647    -0.1336     1.2338 H       
  65 H65            0.5531    -0.3786     3.3834 H       
  66 H66            1.0278     1.8896     2.5010 H       
  67 H67           -1.7574     1.6419     1.2770 H       
  68 H68            1.8365     1.7462    -0.7712 H       
  69 H69           -1.4018    -1.4636     0.0076 H       
  70 H70            1.2157    -2.3311     1.9923 H       
  71 H71           -1.3780    -1.4770     2.5059 H       
  72 H72           -0.2484     1.6889     4.5102 H       
  73 H73           -3.3597     6.7081     0.1536 H       
  74 H74           -3.4116     6.8637     1.9260 H       
  75 H75           -2.8525     9.0371     0.9477 H       
  76 H76           -0.6124     9.3922     2.0283 H       
  77 H77           -1.7465     8.4905     3.0622 H       
  78 H78            1.1634     5.3153     3.4850 H       
  79 H79            2.2976     6.2170     2.4512 H       
  80 H80            3.0986     7.4784     4.4300 H       
  81 H81            1.9645     6.5767     5.4639 H       
  82 H82            3.0803     4.4532     4.8359 H       
  83 H83            4.2144     5.3549     3.8020 H       
  84 H84            5.0155     6.6164     5.7809 H       
  85 H85            3.8813     5.7147     6.8148 H       
  86 H86            4.9972     3.5912     6.1868 H       
  87 H87            6.1313     4.4929     5.1529 H       
  88 H88            6.9323     5.7543     7.1317 H       
  89 H89            5.7982     4.8526     8.1656 H       
  90 H90            6.9141     2.7291     7.5377 H       
  91 H91            8.0482     3.6308     6.5038 H       
  92 H92            8.8492     4.8923     8.4826 H       
  93 H93            7.7151     3.9906     9.5165 H       
  94 H94            8.8309     1.8671     8.8885 H       
  95 H95            9.9651     2.7688     7.8546 H       
  96 H96           10.7661     4.0302     9.8335 H       
  97 H97            9.6320     3.1285    10.8674 H       
  98 H98           10.7478     1.0050    10.2394 H       
  99 H99           11.8819     1.9067     9.2055 H       
 100 H100          12.6830     3.1682    11.1844 H       
 101 H101          11.5488     2.2665    12.2183 H       
 102 H102          12.6647     0.1430    11.5903 H       
 103 H103          13.7988     1.0447    10.5564 H       
 104 H104          14.5998     2.3061    12.5352 H       
 105 H105          13.4657     1.4044    13.5691 H       
 106 H106          14.5816    -0.7191    12.9412 H       
 107 H107          15.7157     0.1826    11.9073 H       
 108 H108          16.5167     1.4441    13.8861 H       
 109 H109          15.3826     0.5424    14.9200 H       
 110 H110          17.6558    -0.4429    15.0222 H       
 111 H111          16.4984    -1.5811    14.2920 H       
 112 H112          17.6326    -0.6794    13.2581 H       
 113 H113          -0.3739     9.5642    -2.5721 H       
 114 H114          -0.8719     7.9049    -2.9810 H       
 115 H115          -3.0217     8.7680    -3.8653 H       
 116 H116          -2.5237    10.4273    -3.4564 H       
 117 H117          -0.5752    10.2168    -4.9754 H       
 118 H118          -1.0732     8.5576    -5.3843 H       
 119 H119          -3.2999     9.5924    -6.3324 H       
 120 H120          -1.0823    11.6422    -6.6352 H       
 121 H121          -2.4871    11.5989    -8.8608 H       
 122 H122          -3.8861    11.1214    -7.8693 H       
 123 H123          -3.6428    13.4333    -6.6348 H       
 124 H124          -2.6362    13.7525    -9.4802 H       
 125 H125          -4.1279    15.8379    -8.8847 H       
 126 H126          -3.6251    15.6087    -7.1927 H       
 127 H127          -1.1604    16.0706    -7.9927 H       
 128 H128          -3.0610    17.5827    -9.8127 H       
 129 H129          -1.0529    19.1705    -9.2006 H       
 130 H130          -0.0497    17.7072    -9.0564 H       
 131 H131          -0.4632    17.1884   -11.4457 H       
 132 H132          -1.4664    18.6516   -11.5898 H       
 133 H133           0.4833    20.0500   -10.9638 H       
 134 H134           1.4865    18.5868   -10.8197 H       
 135 H135           1.0730    18.0679   -13.2089 H       
 136 H136           0.0698    19.5311   -13.3530 H       
 137 H137           2.0195    20.9295   -12.7270 H       
 138 H138           3.0227    19.4663   -12.5829 H       
 139 H139           2.6092    18.9474   -14.9721 H       
 140 H140           1.6060    20.4107   -15.1163 H       
 141 H141           3.5557    21.8091   -14.4902 H       
 142 H142           4.5589    20.3458   -14.3461 H       
 143 H143           3.1422    21.2902   -16.8795 H       
 144 H144           4.8853    21.4352   -16.5496 H       
 145 H145           4.1454    19.8270   -16.7353 H       
@<TRIPOS>BOND
   1    1    2 1
   2    1    7 1
   3    1    6 1
   4    1   62 1
   5    2    3 1
   6    2    8 1
   7    2   63 1
   8    3    4 1
   9    3   14 1
  10    3   64 1
  11    4    5 1
  12    4   15 1
  13    4   65 1
  14    5    6 1
  15    5   16 1
  16    5   66 1
  17    6    9 1
  18    6   67 1
  19    7   68 1
  20    8   69 1
  21    9   10 1
  22   10   11 ar
  23   10   12 ar
  24   10   13 1
  25   13   17 1
  26   14   70 1
  27   15   71 1
  28   16   72 1
  29   17   18 1
  30   17   73 1
  31   17   74 1
  32   18   19 1
  33   18   40 1
  34   18   75 1
  35   19   20 1
  36   19   76 1
  37   19   77 1
  38   20   21 1
  39   21   22 1
  40   21   39 2
  41   22   23 1
  42   22   78 1
  43   22   79 1
  44   23   24 1
  45   23   80 1
  46   23   81 1
  47   24   25 1
  48   24   82 1
  49   24   83 1
  50   25   26 1
  51   25   84 1
  52   25   85 1
  53   26   27 1
  54   26   86 1
  55   26   87 1
  56   27   28 1
  57   27   88 1
  58   27   89 1
  59   28   29 1
  60   28   90 1
  61   28   91 1
  62   29   30 1
  63   29   92 1
  64   29   93 1
  65   30   31 1
  66   30   94 1
  67   30   95 1
  68   31   32 1
  69   31   96 1
  70   31   97 1
  71   32   33 1
  72   32   98 1
  73   32   99 1
  74   33   34 1
  75   33  100 1
  76   33  101 1
  77   34   35 1
  78   34  102 1
  79   34  103 1
  80   35   36 1
  81   35  104 1
  82   35  105 1
  83   36   37 1
  84   36  106 1
  85   36  107 1
  86   37   38 1
  87   37  108 1
  88   37  109 1
  89   38  110 1
  90   38  111 1
  91   38  112 1
  92   40   41 1
  93   41   42 1
  94   41   43 2
  95   42   44 1
  96   42  113 1
  97   42  114 1
  98   44   45 1
  99   44  115 1
 100   44  116 1
 101   45   46 1
 102   45  117 1
 103   45  118 1
 104   46   47 2
 105   46  119 1
 106   47   48 1
 107   47  120 1
 108   48   49 1
 109   48  121 1
 110   48  122 1
 111   49   50 2
 112   49  123 1
 113   50   51 1
 114   50  124 1
 115   51   52 1
 116   51  125 1
 117   51  126 1
 118   52   53 2
 119   52  127 1
 120   53   54 1
 121   53  128 1
 122   54   55 1
 123   54  129 1
 124   54  130 1
 125   55   56 1
 126   55  131 1
 127   55  132 1
 128   56   57 1
 129   56  133 1
 130   56  134 1
 131   57   58 1
 132   57  135 1
 133   57  136 1
 134   58   59 1
 135   58  137 1
 136   58  138 1
 137   59   60 1
 138   59  139 1
 139   59  140 1
 140   60   61 1
 141   60  141 1
 142   60  142 1
 143   61  143 1
 144   61  144 1
 145   61  145 1

#	End of record

