#	Name: ASD02198643
#	Creating user name:	WinNT
#	Creation time:	15. 06. 2019 20:19

#	Modifying user name:	WinNT
#	Modification time:	15. 06. 2019 20:19

#	Program:	/corina/corina34_cracker 3.40 0067  02.08.2006

@<TRIPOS>MOLECULE
ASD02198643
  51   55    0    0    0
SMALL
NO_CHARGES


@<TRIPOS>ATOM
   1 C1             1.0689     0.8178     0.0147 C.2     
   2 C2             0.8857    -0.4906    -0.3114 C.2     
   3 N3            -0.3592    -1.0142    -0.3978 N.pl3   
   4 N4            -1.4249    -0.3349    -0.1848 N.2     
   5 C5            -1.3905     0.9410     0.1387 C.2     
   6 C6            -0.0855     1.6049     0.2647 C.2     
   7 C7            -0.4894    -2.3651    -0.7372 C.ar    
   8 C8            -0.7026    -2.7332    -2.0619 C.ar    
   9 C9            -0.8317    -4.0691    -2.3969 C.ar    
  10 C10           -0.7490    -5.0407    -1.4179 C.ar    
  11 C11           -0.5358    -4.6789    -0.0934 C.ar    
  12 C12           -0.4004    -3.3406     0.2464 C.ar    
  13 C13           -2.6412     1.6904     0.3760 C.2     
  14 N14           -2.9660     2.3920     1.5028 N.pl3   
  15 N15           -4.2373     2.9465     1.3085 N.2     
  16 C16           -4.6700     2.6019     0.1220 C.2     
  17 C17           -3.6972     1.8185    -0.4993 C.2     
  18 C18           -2.1703     2.5313     2.6470 C.ar    
  19 C19           -2.0666     3.7647     3.2766 C.ar    
  20 C20           -1.2811     3.8987     4.4046 C.ar    
  21 C21           -0.5980     2.8064     4.9071 C.ar    
  22 C22           -0.6988     1.5770     4.2822 C.ar    
  23 C23           -1.4879     1.4349     3.1576 C.ar    
  24 O24            0.0017     2.7872     0.5630 O.2     
  25 O25            2.3165     1.3520     0.1037 O.3     
  26 C26            3.4165     0.4787    -0.1601 C.3     
  27 F27           -0.7839    -1.7855    -3.0213 F       
  28 N28           -0.4528    -5.6635     0.8959 N.3     
  29 C29           -1.0674    -5.2013     2.1544 C.3     
  30 C30           -1.6787    -6.6014     2.3050 C.3     
  31 C31           -1.5608    -6.6292     0.7747 C.3     
  32 F32           -0.8517    -7.5202     2.9600 F       
  33 F33           -2.9953    -6.6037     2.7782 F       
  34 H34            1.7434    -1.1181    -0.5037 H       
  35 H35           -0.9979    -4.3532    -3.4255 H       
  36 H36           -0.8507    -6.0828    -1.6826 H       
  37 H37           -0.2342    -3.0579     1.2754 H       
  38 H38           -5.6209     2.8817    -0.3068 H       
  39 H39           -3.7631     1.3847    -1.4862 H       
  40 H40           -2.5993     4.6183     2.8842 H       
  41 H41           -1.2001     4.8577     4.8947 H       
  42 H42            0.0159     2.9139     5.7891 H       
  43 H43           -0.1637     0.7258     4.6768 H       
  44 H44           -1.5665     0.4743     2.6703 H       
  45 H45            4.3511     1.0296    -0.0550 H       
  46 H46            3.4011    -0.3492     0.5488 H       
  47 H47            3.3362     0.0895    -1.1750 H       
  48 H48           -0.3402    -4.9594     2.9295 H       
  49 H49           -1.8100    -4.4162     2.0123 H       
  50 H50           -2.4351    -6.2251     0.2644 H       
  51 H51           -1.2518    -7.5973     0.3805 H       
@<TRIPOS>BOND
   1    1    2 2
   2    1   25 1
   3    1    6 1
   4    2    3 1
   5    2   34 1
   6    3    4 1
   7    3    7 1
   8    4    5 2
   9    5    6 1
  10    5   13 1
  11    6   24 2
  12    7    8 ar
  13    7   12 ar
  14    8    9 ar
  15    8   27 1
  16    9   10 ar
  17    9   35 1
  18   10   11 ar
  19   10   36 1
  20   11   12 ar
  21   11   28 1
  22   12   37 1
  23   13   14 1
  24   13   17 2
  25   14   15 1
  26   14   18 1
  27   15   16 2
  28   16   17 1
  29   16   38 1
  30   17   39 1
  31   18   19 ar
  32   18   23 ar
  33   19   20 ar
  34   19   40 1
  35   20   21 ar
  36   20   41 1
  37   21   22 ar
  38   21   42 1
  39   22   23 ar
  40   22   43 1
  41   23   44 1
  42   25   26 1
  43   26   45 1
  44   26   46 1
  45   26   47 1
  46   28   29 1
  47   28   31 1
  48   29   30 1
  49   29   48 1
  50   29   49 1
  51   30   31 1
  52   30   32 1
  53   30   33 1
  54   31   50 1
  55   31   51 1

#	End of record

