#	Name: ASD01140298
#	Creating user name:	WinNT
#	Creation time:	15. 06. 2019 19:00

#	Modifying user name:	WinNT
#	Modification time:	15. 06. 2019 19:00

#	Program:	/corina/corina34_cracker 3.40 0067  02.08.2006

@<TRIPOS>MOLECULE
ASD01140298
  31   32    0    0    0
SMALL
NO_CHARGES


@<TRIPOS>ATOM
   1 C1            -0.0274     1.3910     0.0540 C.ar    
   2 C2            -0.0114    -0.0103     0.0871 C.ar    
   3 C3             1.1999    -0.6845     0.0549 C.ar    
   4 C4             2.3843     0.0226    -0.0096 C.ar    
   5 C5             2.3728     1.4073    -0.0421 C.ar    
   6 C6             1.1779     2.0936    -0.0112 C.ar    
   7 C7            -1.3102     2.1192     0.0817 C.2     
   8 N8            -1.3210     3.4665     0.0496 N.am    
   9 O9            -2.3576     1.5039     0.1334 O.2     
  10 N10           -2.5392     4.1581     0.0759 N.pl3   
  11 C11           -2.5500     5.4990     0.0441 C.2     
  12 C12           -3.7629     6.1857    -0.0519 C.2     
  13 C13           -6.1874     7.5530    -0.2442 C.2     
  14 C14           -6.2152     6.1965    -0.3546 C.2     
  15 C15           -5.0216     5.4599    -0.2649 C.2     
  16 C16           -3.8065     7.5928     0.0596 C.2     
  17 C17           -4.9963     8.2428    -0.0366 C.2     
  18 O18           -5.0309     4.2405    -0.3625 O.2     
  19 O19           -1.1757    -0.7036     0.1509 O.3     
  20 H20            1.2170    -1.7641     0.0806 H       
  21 H21            3.3251    -0.5071    -0.0345 H       
  22 H22            3.3042     1.9516    -0.0918 H       
  23 H23            1.1737     3.1733    -0.0371 H       
  24 H24           -0.4855     3.9575     0.0084 H       
  25 H25           -3.3748     3.6672     0.1172 H       
  26 H26           -1.6211     6.0478     0.0926 H       
  27 H27           -7.1118     8.1068    -0.3154 H       
  28 H28           -7.1537     5.6867    -0.5152 H       
  29 H29           -2.8963     8.1513     0.2212 H       
  30 H30           -5.0174     9.3195     0.0450 H       
  31 H31           -1.5489    -0.9259    -0.7130 H       
@<TRIPOS>BOND
   1    1    2 ar
   2    1    6 ar
   3    1    7 1
   4    2    3 ar
   5    2   19 1
   6    3    4 ar
   7    3   20 1
   8    4    5 ar
   9    4   21 1
  10    5    6 ar
  11    5   22 1
  12    6   23 1
  13    7    8 am
  14    7    9 2
  15    8   10 1
  16    8   24 1
  17   10   11 1
  18   10   25 1
  19   11   12 2
  20   11   26 1
  21   12   16 1
  22   12   15 1
  23   13   14 2
  24   13   17 1
  25   13   27 1
  26   14   15 1
  27   14   28 1
  28   15   18 2
  29   16   17 2
  30   16   29 1
  31   17   30 1
  32   19   31 1

#	End of record

