#	Name: ASD04590549
#	Creating user name:	WinNT
#	Creation time:	15. 06. 2019 20:51

#	Modifying user name:	WinNT
#	Modification time:	15. 06. 2019 20:51

#	Program:	/corina/corina34_cracker 3.40 0067  02.08.2006

@<TRIPOS>MOLECULE
ASD04590549
  63   68    0    0    0
SMALL
NO_CHARGES


@<TRIPOS>ATOM
   1 N1             3.0047     1.1533    -0.8657 N.ar    
   2 C2             2.9907    -0.1664    -0.7142 C.ar    
   3 C3             1.7981    -0.8500    -0.7492 C.ar    
   4 C4             0.6128    -0.1497    -0.9631 C.ar    
   5 C5             0.6659     1.2210    -1.1238 C.ar    
   6 C6             1.9036     1.8536    -1.0651 C.ar    
   7 N7             1.9814     3.2350    -1.2179 N.pl3   
   8 C8             3.1912     3.8851    -1.0350 C.ar    
   9 N9             3.2676     5.1786    -1.3026 N.ar    
  10 C10            4.4111     5.8373    -1.1395 C.ar    
  11 C11            5.5360     5.1256    -0.6761 C.ar    
  12 C12            5.4072     3.7665    -0.4081 C.ar    
  13 N13            4.2310     3.1899    -0.5926 N.ar    
  14 N14            4.7756     7.1467    -1.3326 N.pl3   
  15 C15            6.1096     7.3298    -1.0119 C.ar    
  16 C16            6.6363     6.0946    -0.5939 C.ar    
  17 C17            6.9498     8.4355    -1.0307 C.ar    
  18 N18            8.2106     8.3255    -0.6649 N.ar    
  19 C19            8.7361     7.1802    -0.2673 C.ar    
  20 C20            7.9770     6.0305    -0.2159 C.ar    
  21 C21            3.8789     8.2017    -1.8115 C.3     
  22 C22            2.7074     8.3554    -0.8395 C.3     
  23 C23            1.7710     9.4572    -1.3396 C.3     
  24 C24            1.2389     9.0844    -2.7249 C.3     
  25 C25            2.4105     8.9307    -3.6968 C.3     
  26 C26            3.3469     7.8290    -3.1967 C.3     
  27 C27            0.3025    10.1862    -3.2250 C.3     
  28 C28            4.3173    -0.8558    -0.5244 C.3     
  29 C29            4.1293    -2.2302     0.1154 C.3     
  30 N30            3.0549    -2.9266    -0.6113 N.am    
  31 C31            1.7112    -2.3412    -0.5496 C.3     
  32 C32            3.2962    -4.0562    -1.3057 C.2     
  33 C33            2.1606    -4.8261    -1.8981 C.2     
  34 O34            2.4068    -5.8805    -2.6967 O.3     
  35 O35            4.4356    -4.4481    -1.4499 O.2     
  36 O36            1.0174    -4.5006    -1.6589 O.2     
  37 H37           -0.3325    -0.6705    -1.0031 H       
  38 H38           -0.2360     1.7909    -1.2916 H       
  39 H39            1.1887     3.7425    -1.4524 H       
  40 H40            6.2508     3.1937    -0.0522 H       
  41 H41            6.5662     9.3939    -1.3482 H       
  42 H42            9.7761     7.1442     0.0217 H       
  43 H43            8.4128     5.0975     0.1097 H       
  44 H44            4.4256     9.1427    -1.8733 H       
  45 H45            2.1608     7.4144    -0.7776 H       
  46 H46            3.0864     8.6210     0.1473 H       
  47 H47            0.9363     9.5667    -0.6472 H       
  48 H48            2.3176    10.3982    -1.4015 H       
  49 H49            0.6923     8.1434    -2.6630 H       
  50 H50            2.0314     8.6652    -4.6837 H       
  51 H51            2.9571     9.8717    -3.7587 H       
  52 H52            4.1815     7.7194    -3.8891 H       
  53 H53            2.8003     6.8879    -3.1348 H       
  54 H54            0.8491    11.1272    -3.2869 H       
  55 H55           -0.0766     9.9207    -4.2118 H       
  56 H56           -0.5321    10.2957    -2.5325 H       
  57 H57            4.8014    -0.9747    -1.4937 H       
  58 H58            4.9501    -0.2444     0.1190 H       
  59 H59            5.0548    -2.8012     0.0407 H       
  60 H60            3.8506    -2.1142     1.1627 H       
  61 H61            1.2681    -2.5517     0.4238 H       
  62 H62            1.0896    -2.7763    -1.3322 H       
  63 H63            1.6401    -6.3472    -3.0564 H       
@<TRIPOS>BOND
   1    1    2 ar
   2    1    6 ar
   3    2    3 ar
   4    2   28 1
   5    3    4 ar
   6    3   31 1
   7    4    5 ar
   8    4   37 1
   9    5    6 ar
  10    5   38 1
  11    6    7 1
  12    7    8 1
  13    7   39 1
  14    8    9 ar
  15    8   13 ar
  16    9   10 ar
  17   10   11 ar
  18   10   14 1
  19   11   12 ar
  20   11   16 1
  21   12   13 ar
  22   12   40 1
  23   14   15 1
  24   14   21 1
  25   15   16 ar
  26   15   17 ar
  27   16   20 ar
  28   17   18 ar
  29   17   41 1
  30   18   19 ar
  31   19   20 ar
  32   19   42 1
  33   20   43 1
  34   21   22 1
  35   21   26 1
  36   21   44 1
  37   22   23 1
  38   22   45 1
  39   22   46 1
  40   23   24 1
  41   23   47 1
  42   23   48 1
  43   24   25 1
  44   24   27 1
  45   24   49 1
  46   25   26 1
  47   25   50 1
  48   25   51 1
  49   26   52 1
  50   26   53 1
  51   27   54 1
  52   27   55 1
  53   27   56 1
  54   28   29 1
  55   28   57 1
  56   28   58 1
  57   29   30 1
  58   29   59 1
  59   29   60 1
  60   30   31 1
  61   30   32 am
  62   31   61 1
  63   31   62 1
  64   32   33 1
  65   32   35 2
  66   33   34 1
  67   33   36 2
  68   34   63 1

#	End of record

