#	Name: ASD03081116
#	Creating user name:	WinNT
#	Creation time:	15. 06. 2019 20:27

#	Modifying user name:	WinNT
#	Modification time:	15. 06. 2019 20:27

#	Program:	/corina/corina34_cracker 3.40 0067  02.08.2006

@<TRIPOS>MOLECULE
ASD03081116
  25   27    0    0    0
SMALL
NO_CHARGES


@<TRIPOS>ATOM
   1 O1            -0.0144     1.2085     0.0087 O.3     
   2 N2             0.0021    -0.0041     0.0020 N.2     
   3 C3             1.2349    -0.4419    -0.0121 C.2     
   4 N4             2.0455     0.6368    -0.0141 N.2     
   5 C5             1.2410     1.6828    -0.0008 C.2     
   6 C6             2.4351    -4.4271    -0.0446 C.ar    
   7 N7             1.1467    -4.1481    -0.0308 N.ar    
   8 C8             0.7225    -2.8961    -0.0200 C.ar    
   9 C9             1.6630    -1.8633    -0.0234 C.ar    
  10 C10            3.0174    -2.2048    -0.0382 C.ar    
  11 N11            3.3551    -3.4828    -0.0483 N.ar    
  12 C12            1.6452     3.1049     0.0026 C.ar    
  13 C13            0.6759     4.1088     0.0173 C.ar    
  14 C14            1.0607     5.4358     0.0203 C.ar    
  15 C15            2.4059     5.7692     0.0087 C.ar    
  16 C16            3.3697     4.7776    -0.0063 C.ar    
  17 C17            2.9977     3.4487    -0.0032 C.ar    
  18 F18            0.1244     6.4096     0.0341 F       
  19 H19            2.7466    -5.4612    -0.0486 H       
  20 H20           -0.3346    -2.6752    -0.0091 H       
  21 H21            3.7767    -1.4368    -0.0409 H       
  22 H22           -0.3724     3.8490     0.0259 H       
  23 H23            2.7026     6.8076     0.0111 H       
  24 H24            4.4163     5.0438    -0.0160 H       
  25 H25            3.7521     2.6759    -0.0097 H       
@<TRIPOS>BOND
   1    1    2 1
   2    1    5 1
   3    2    3 2
   4    3    4 1
   5    3    9 1
   6    4    5 2
   7    5   12 1
   8    6    7 ar
   9    6   11 ar
  10    6   19 1
  11    7    8 ar
  12    8    9 ar
  13    8   20 1
  14    9   10 ar
  15   10   11 ar
  16   10   21 1
  17   12   13 ar
  18   12   17 ar
  19   13   14 ar
  20   13   22 1
  21   14   15 ar
  22   14   18 1
  23   15   16 ar
  24   15   23 1
  25   16   17 ar
  26   16   24 1
  27   17   25 1

#	End of record

