#	Name: ASD03091089
#	Creating user name:	WinNT
#	Creation time:	15. 06. 2019 20:30

#	Modifying user name:	WinNT
#	Modification time:	15. 06. 2019 20:30

#	Program:	/corina/corina34_cracker 3.40 0067  02.08.2006

@<TRIPOS>MOLECULE
ASD03091089
  51   53    0    0    0
SMALL
NO_CHARGES


@<TRIPOS>ATOM
   1 C1            -0.4133     0.3844     0.4468 C.3     
   2 N2            -0.0652    -1.0462     0.6931 N.am    
   3 C3             0.7493    -1.0646     1.9271 C.3     
   4 C4             0.8057     0.4212     2.3994 C.3     
   5 N5             1.6934     1.0891     1.3959 N.3     
   6 C6             0.9539     1.0566     0.1110 C.3     
   7 C7            -0.6090     0.9036     1.9162 C.3     
   8 C8            -0.4214    -2.1072    -0.0579 C.2     
   9 O9            -1.0981    -1.9465    -1.0543 O.2     
  10 O10           -0.0276    -3.3451     0.2960 O.3     
  11 C11            2.9162     0.4222     1.2868 C.ar    
  12 C12            3.6532     0.5123     0.1155 C.ar    
  13 C13            4.8731    -0.1553     0.0118 C.ar    
  14 C14            5.3443    -0.9100     1.0878 C.ar    
  15 C15            4.6035    -0.9934     2.2490 C.ar    
  16 C16            3.3969    -0.3270     2.3542 C.ar    
  17 N17            6.6382    -1.6210     0.9828 N.pl3   
  18 O18            6.6962    -2.8167     1.2078 O.2     
  19 O19            7.6451    -1.0105     0.6713 O.2     
  20 C20            5.6648    -0.0647    -1.2337 C.2     
  21 N21            5.2750     0.7658    -2.2210 N.am    
  22 O22            6.6671    -0.7393    -1.3672 O.2     
  23 C23            6.0593     0.8555    -3.4551 C.3     
  24 C24           -0.4481    -4.4404    -0.5594 C.3     
  25 C25            0.0983    -4.2231    -1.9719 C.3     
  26 C26            0.0906    -5.7592    -0.0014 C.3     
  27 C27           -1.9765    -4.4929    -0.6064 C.3     
  28 H28           -1.2252     0.5664    -0.2573 H       
  29 H29            0.2726    -1.6851     2.6859 H       
  30 H30            1.7529    -1.4319     1.7126 H       
  31 H31            1.0568     0.5849     3.4474 H       
  32 H32            1.4975     0.4626    -0.6237 H       
  33 H33            0.7967     2.0690    -0.2610 H       
  34 H34           -0.7156     1.9874     1.9623 H       
  35 H35           -1.4206     0.3908     2.4325 H       
  36 H36            3.2835     1.0973    -0.7136 H       
  37 H37            4.9698    -1.5777     3.0801 H       
  38 H38            2.8237    -0.3924     3.2672 H       
  39 H39            4.4751     1.3041    -2.1145 H       
  40 H40            5.5930     1.5727    -4.1307 H       
  41 H41            7.0716     1.1838    -3.2192 H       
  42 H42            6.0970    -0.1231    -3.9337 H       
  43 H43            1.1872    -4.1857    -1.9384 H       
  44 H44           -0.2174    -5.0453    -2.6141 H       
  45 H45           -0.2855    -3.2836    -2.3695 H       
  46 H46           -0.2987    -5.9139     1.0049 H       
  47 H47           -0.2251    -6.5814    -0.6436 H       
  48 H48            1.1794    -5.7217     0.0321 H       
  49 H49           -2.3603    -3.5534    -1.0040 H       
  50 H50           -2.2922    -5.3151    -1.2486 H       
  51 H51           -2.3659    -4.6477     0.3998 H       
@<TRIPOS>BOND
   1    1    2 1
   2    1    6 1
   3    1    7 1
   4    1   28 1
   5    2    3 1
   6    2    8 am
   7    3    4 1
   8    3   29 1
   9    3   30 1
  10    4    5 1
  11    4    7 1
  12    4   31 1
  13    5    6 1
  14    5   11 1
  15    6   32 1
  16    6   33 1
  17    7   34 1
  18    7   35 1
  19    8    9 2
  20    8   10 1
  21   10   24 1
  22   11   12 ar
  23   11   16 ar
  24   12   13 ar
  25   12   36 1
  26   13   14 ar
  27   13   20 1
  28   14   15 ar
  29   14   17 1
  30   15   16 ar
  31   15   37 1
  32   16   38 1
  33   17   18 2
  34   17   19 2
  35   20   21 am
  36   20   22 2
  37   21   23 1
  38   21   39 1
  39   23   40 1
  40   23   41 1
  41   23   42 1
  42   24   25 1
  43   24   27 1
  44   24   26 1
  45   25   43 1
  46   25   44 1
  47   25   45 1
  48   26   46 1
  49   26   47 1
  50   26   48 1
  51   27   49 1
  52   27   50 1
  53   27   51 1

#	End of record

