#	Name: ASD04882611
#	Creating user name:	WinNT
#	Creation time:	15. 06. 2019 20:55

#	Modifying user name:	WinNT
#	Modification time:	15. 06. 2019 20:55

#	Program:	/corina/corina34_cracker 3.40 0067  02.08.2006

@<TRIPOS>MOLECULE
ASD04882611
  76   80    0    0    0
SMALL
NO_CHARGES


@<TRIPOS>ATOM
   1 C1            -0.0215     1.4013    -0.0093 C.ar    
   2 C2            -0.0116     0.0037    -0.0052 C.ar    
   3 C3            -1.2095    -0.7018    -0.0165 C.ar    
   4 C4            -2.4097    -0.0267    -0.0324 C.ar    
   5 C5            -2.4268     1.3709    -0.0366 C.ar    
   6 C6            -1.2240     2.0827    -0.0190 C.ar    
   7 N7             1.1997    -0.6831     0.0099 N.3     
   8 C8             1.3066    -1.5361     1.2018 C.3     
   9 C9             1.3724    -1.4733    -1.2170 C.3     
  10 C10            2.7462    -2.1476    -1.1972 C.3     
  11 N11            2.8531    -3.0006    -0.0053 N.3     
  12 C12            2.6805    -2.2104     1.2216 C.3     
  13 C13           -3.7127     2.0939    -0.0536 C.2     
  14 O14           -3.7266     3.3098    -0.0573 O.2     
  15 N15           -4.8720     1.4067    -0.0650 N.am    
  16 N16            1.1863     2.1109     0.0021 N.am    
  17 C17            4.0681    -3.6895     0.0098 C.ar    
  18 C18            1.2294     3.3599     0.5068 C.2     
  19 C19            2.5092     4.0695     0.5995 C.2     
  20 C20            2.6935     5.3315     1.0876 C.2     
  21 C21            4.0664     5.6062     0.9879 C.2     
  22 C22            4.6525     4.5138     0.4501 C.2     
  23 O23            3.7118     3.5879     0.2228 O.3     
  24 O24            0.2059     3.8988     0.8856 O.2     
  25 C25            5.2663    -2.9871     0.0207 C.ar    
  26 C26            6.4660    -3.6714     0.0362 C.ar    
  27 C27            6.4751    -5.0540     0.0403 C.ar    
  28 C28            5.2837    -5.7565     0.0295 C.ar    
  29 C29            4.0808    -5.0787     0.0198 C.ar    
  30 C30            2.7832    -5.8450     0.0085 C.3     
  31 C31           -6.1490     2.1246    -0.0818 C.3     
  32 C32           -7.3004     1.1171    -0.0922 C.3     
  33 N33           -8.5808     1.8370    -0.1091 N.3     
  34 C34           -9.7117     0.8995    -0.1195 C.3     
  35 C35          -10.9329     1.5916     0.4736 C.3     
  36 C36           -9.9539     0.4239    -1.5662 C.3     
  37 S37          -11.7799     0.2227    -1.6306 S.o2    
  38 C38          -12.1127     1.6474    -0.5177 C.3     
  39 O39          -12.2507     0.5137    -2.9394 O.2     
  40 O40          -12.1540    -0.9881    -0.9879 O.2     
  41 O41          -10.5756     2.9246     0.8445 O.3     
  42 H42           -1.1987    -1.7817    -0.0133 H       
  43 H43           -3.3386    -0.5776    -0.0419 H       
  44 H44           -1.2341     3.1626    -0.0222 H       
  45 H45            1.1879    -0.9262     2.0973 H       
  46 H46            0.5278    -2.2982     1.1746 H       
  47 H47            0.5943    -2.2347    -1.2716 H       
  48 H48            1.3016    -0.8176    -2.0848 H       
  49 H49            2.8649    -2.7575    -2.0927 H       
  50 H50            3.5250    -1.3855    -1.1700 H       
  51 H51            3.4585    -1.4490     1.2763 H       
  52 H52            2.7512    -2.8660     2.0895 H       
  53 H53           -4.8609     0.4367    -0.0621 H       
  54 H54            1.9917     1.7034    -0.3533 H       
  55 H55            1.9307     5.9906     1.4750 H       
  56 H56            4.5612     6.5191     1.2848 H       
  57 H57            5.7066     4.4038     0.2421 H       
  58 H58            5.2600    -1.9071     0.0168 H       
  59 H59            7.3981    -3.1259     0.0447 H       
  60 H60            7.4145    -5.5867     0.0517 H       
  61 H61            5.2943    -6.8365     0.0324 H       
  62 H62            2.4617    -6.0303     1.0334 H       
  63 H63            2.0221    -5.2631    -0.5113 H       
  64 H64            2.9271    -6.7957    -0.5047 H       
  65 H65           -6.2241     2.7531     0.8055 H       
  66 H66           -6.2036     2.7480    -0.9743 H       
  67 H67           -7.2252     0.4886    -0.9796 H       
  68 H68           -7.2458     0.4937     0.8003 H       
  69 H69           -8.6472     2.4750     0.6697 H       
  70 H70           -9.4603     0.0364     0.4970 H       
  71 H71          -11.2481     1.0496     1.3653 H       
  72 H72           -9.6232     1.1777    -2.2807 H       
  73 H73           -9.4542    -0.5276    -1.7484 H       
  74 H74          -13.0611     1.5167     0.0034 H       
  75 H75          -12.1038     2.5835    -1.0760 H       
  76 H76          -11.3014     3.4331     1.2314 H       
@<TRIPOS>BOND
   1    1    2 ar
   2    1   16 1
   3    1    6 ar
   4    2    3 ar
   5    2    7 1
   6    3    4 ar
   7    3   42 1
   8    4    5 ar
   9    4   43 1
  10    5    6 ar
  11    5   13 1
  12    6   44 1
  13    7    8 1
  14    7    9 1
  15    8   12 1
  16    8   45 1
  17    8   46 1
  18    9   10 1
  19    9   47 1
  20    9   48 1
  21   10   11 1
  22   10   49 1
  23   10   50 1
  24   11   12 1
  25   11   17 1
  26   12   51 1
  27   12   52 1
  28   13   14 2
  29   13   15 am
  30   15   31 1
  31   15   53 1
  32   16   18 am
  33   16   54 1
  34   17   25 ar
  35   17   29 ar
  36   18   19 1
  37   18   24 2
  38   19   20 2
  39   19   23 1
  40   20   21 1
  41   20   55 1
  42   21   22 2
  43   21   56 1
  44   22   23 1
  45   22   57 1
  46   25   26 ar
  47   25   58 1
  48   26   27 ar
  49   26   59 1
  50   27   28 ar
  51   27   60 1
  52   28   29 ar
  53   28   61 1
  54   29   30 1
  55   30   62 1
  56   30   63 1
  57   30   64 1
  58   31   32 1
  59   31   65 1
  60   31   66 1
  61   32   33 1
  62   32   67 1
  63   32   68 1
  64   33   34 1
  65   33   69 1
  66   34   35 1
  67   34   36 1
  68   34   70 1
  69   35   41 1
  70   35   38 1
  71   35   71 1
  72   36   37 1
  73   36   72 1
  74   36   73 1
  75   37   38 1
  76   37   39 2
  77   37   40 2
  78   38   74 1
  79   38   75 1
  80   41   76 1

#	End of record

