#	Name: ASD08710082
#	Creating user name:	WinNT
#	Creation time:	15. 06. 2019 21:19

#	Modifying user name:	WinNT
#	Modification time:	15. 06. 2019 21:19

#	Program:	/corina/corina34_cracker 3.40 0067  02.08.2006

@<TRIPOS>MOLECULE
ASD08710082
  52   54    0    0    0
SMALL
NO_CHARGES


@<TRIPOS>ATOM
   1 N1            -0.3202     1.5444     0.4603 N.am    
   2 C2            -0.2565     0.0770     0.4111 C.3     
   3 C3             0.9107    -0.3327    -0.4955 C.3     
   4 N4             2.1080     0.4149    -0.0863 N.am    
   5 C5             2.0443     1.8823    -0.0371 C.3     
   6 C6             0.8770     2.2921     0.8695 C.3     
   7 S7             3.5038    -0.3820     0.3127 S.o2    
   8 O8             4.2397     0.4948     1.1546 O.2     
   9 O9             3.1197    -1.6934     0.7023 O.2     
  10 C10            4.4450    -0.5579    -1.1665 C.ar    
  11 C11            5.3506     0.4212    -1.5300 C.ar    
  12 C12            6.0890     0.2832    -2.6905 C.ar    
  13 C13            5.9220    -0.8341    -3.4871 C.ar    
  14 C14            5.0171    -1.8136    -3.1231 C.ar    
  15 C15            4.2818    -1.6777    -1.9604 C.ar    
  16 C16            6.7263    -0.9841    -4.7528 C.3     
  17 F17            7.9216    -1.6534    -4.4691 F       
  18 F18            5.9907    -1.7195    -5.6883 F       
  19 F19            7.0131     0.2813    -5.2757 F       
  20 C20           -1.5658    -0.4751    -0.1563 C.3     
  21 C21           -1.4547     2.1932     0.1307 C.2     
  22 O22           -2.4017     1.5741    -0.3137 O.2     
  23 C23           -2.0202     4.4702    -0.7219 C.ar    
  24 C24           -1.5473     3.6578     0.3096 C.ar    
  25 C25           -1.1625     4.2531     1.5167 C.ar    
  26 C26           -1.2691     5.6281     1.6332 C.ar    
  27 C27           -1.7477     6.3630     0.5638 C.ar    
  28 N28           -2.1032     5.7745    -0.5625 N.ar    
  29 C29           -1.8653     7.8603     0.6868 C.3     
  30 C30           -2.4337     3.8498    -2.0316 C.3     
  31 H31           -0.0955    -0.3160     1.4149 H       
  32 H32            1.0948    -1.4023    -0.3940 H       
  33 H33            0.6689    -0.0974    -1.5320 H       
  34 H34            2.9770     2.2757     0.3671 H       
  35 H35            1.8832     2.2754    -1.0410 H       
  36 H36            0.6929     3.3616     0.7680 H       
  37 H37            1.1188     2.0567     1.9060 H       
  38 H38            5.4810     1.2941    -0.9076 H       
  39 H39            6.7960     1.0484    -2.9749 H       
  40 H40            4.8864    -2.6864    -3.7457 H       
  41 H41            3.5775    -2.4447    -1.6741 H       
  42 H42           -1.7324    -0.0636    -1.1518 H       
  43 H43           -1.5055    -1.5617    -0.2177 H       
  44 H44           -2.3920    -0.1933     0.4963 H       
  45 H45           -0.7923     3.6548     2.3361 H       
  46 H46           -0.9819     6.1219     2.5498 H       
  47 H47           -0.9356     8.3259     0.3596 H       
  48 H48           -2.6871     8.2127     0.0636 H       
  49 H49           -2.0581     8.1254     1.7264 H       
  50 H50           -3.5055     3.6518    -2.0175 H       
  51 H51           -2.2014     4.5345    -2.8473 H       
  52 H52           -1.8934     2.9145    -2.1772 H       
@<TRIPOS>BOND
   1    1    2 1
   2    1    6 1
   3    1   21 am
   4    2    3 1
   5    2   20 1
   6    2   31 1
   7    3    4 1
   8    3   32 1
   9    3   33 1
  10    4    5 1
  11    4    7 am
  12    5    6 1
  13    5   34 1
  14    5   35 1
  15    6   36 1
  16    6   37 1
  17    7    8 2
  18    7    9 2
  19    7   10 1
  20   10   11 ar
  21   10   15 ar
  22   11   12 ar
  23   11   38 1
  24   12   13 ar
  25   12   39 1
  26   13   14 ar
  27   13   16 1
  28   14   15 ar
  29   14   40 1
  30   15   41 1
  31   16   17 1
  32   16   18 1
  33   16   19 1
  34   20   42 1
  35   20   43 1
  36   20   44 1
  37   21   22 2
  38   21   24 1
  39   23   24 ar
  40   23   28 ar
  41   23   30 1
  42   24   25 ar
  43   25   26 ar
  44   25   45 1
  45   26   27 ar
  46   26   46 1
  47   27   28 ar
  48   27   29 1
  49   29   47 1
  50   29   48 1
  51   29   49 1
  52   30   50 1
  53   30   51 1
  54   30   52 1

#	End of record

