#	Name: ASD04570047
#	Creating user name:	WinNT
#	Creation time:	15. 06. 2019 20:49

#	Modifying user name:	WinNT
#	Modification time:	15. 06. 2019 20:49

#	Program:	/corina/corina34_cracker 3.40 0067  02.08.2006

@<TRIPOS>MOLECULE
ASD04570047
 331  332    0    0    0
SMALL
NO_CHARGES


@<TRIPOS>ATOM
   1 C1            -0.0187     1.5258     0.0104 C.3     
   2 C2             0.0021    -0.0041     0.0020 C.3     
   3 C3            -1.4333    -0.5336     0.0129 C.3     
   4 C4            -1.4126    -2.0635     0.0045 C.3     
   5 C5            -2.8479    -2.5931     0.0153 C.3     
   6 C6            -2.8272    -4.1229     0.0069 C.3     
   7 C7            -4.2626    -4.6525     0.0178 C.3     
   8 C8            -4.2418    -6.1823     0.0094 C.3     
   9 C9            -5.6772    -6.7119     0.0202 C.3     
  10 C10           -5.6565    -8.2417     0.0118 C.3     
  11 C11           -7.0918    -8.7713     0.0227 C.3     
  12 C12           -7.0711   -10.3012     0.0143 C.3     
  13 C13           -8.5065   -10.8307     0.0251 C.3     
  14 C14           -8.4857   -12.3606     0.0167 C.3     
  15 C15           -9.8995   -12.8822     0.0274 C.2     
  16 N16          -10.1278   -14.2105     0.0224 N.am    
  17 O17          -10.8319   -12.1067     0.0405 O.2     
  18 C18          -11.5022   -14.7176     0.0328 C.3     
  19 C19          -11.4818   -16.2244     0.0246 C.2     
  20 N20          -12.6397   -16.9141     0.0319 N.am    
  21 O21          -10.4234   -16.8164     0.0113 O.2     
  22 C22          -12.6198   -18.3789     0.0239 C.3     
  23 C23          -14.0336   -18.9006     0.0345 C.2     
  24 N24          -14.2619   -20.2288     0.0296 N.am    
  25 O25          -14.9660   -18.1251     0.0476 O.2     
  26 C26          -15.6363   -20.7359     0.0400 C.3     
  27 C27          -15.6677   -22.1146    -0.5676 C.2     
  28 O28          -14.6429   -22.6236    -0.9697 O.2     
  29 N29          -16.8345   -22.7821    -0.6641 N.am    
  30 C30          -16.1445   -20.8022     1.4816 C.3     
  31 C31          -16.2295   -19.4087     2.0489 C.ar    
  32 C32          -17.3963   -18.6790     1.9152 C.ar    
  33 C33          -16.8650   -24.1224    -1.2548 C.3     
  34 C34          -16.9741   -24.0068    -2.7765 C.3     
  35 C35          -18.0543   -24.8792    -0.7220 C.2     
  36 O36          -18.8028   -24.3511     0.0728 O.2     
  37 N37          -18.2862   -26.1430    -1.1288 N.am    
  38 C38          -15.7083   -23.3492    -3.3300 C.3     
  39 C39          -15.8157   -23.2353    -4.8289 C.2     
  40 N40          -14.8101   -22.6835    -5.5365 N.am    
  41 C41          -19.4424   -26.8788    -0.6109 C.3     
  42 C42          -20.6788   -26.5390    -1.4457 C.3     
  43 C43          -19.1730   -28.3593    -0.6918 C.2     
  44 O44          -18.1191   -28.7604    -1.1381 O.2     
  45 N45          -20.1034   -29.2376    -0.2681 N.am    
  46 C46          -19.8415   -30.6769    -0.3467 C.3     
  47 C47          -21.1693   -31.4337    -0.4184 C.3     
  48 C48          -19.0783   -31.1161     0.8763 C.2     
  49 C49          -21.8874   -31.0811    -1.7226 C.3     
  50 C50          -23.2152   -31.8379    -1.7943 C.3     
  51 C51          -17.4766   -17.4013     2.4344 C.ar    
  52 C52          -16.3853   -16.8505     3.0903 C.ar    
  53 C53          -15.2157   -17.5846     3.2231 C.ar    
  54 C54          -15.1423   -18.8640     2.7071 C.ar    
  55 O55          -16.4617   -15.5936     3.6015 O.3     
  56 O56          -16.8070   -23.6402    -5.3983 O.2     
  57 C57          -23.9334   -31.4854    -3.0984 C.3     
  58 N58          -25.2083   -32.2120    -3.1673 N.3     
  59 C59            1.4167     2.0553    -0.0004 C.3     
  60 H60           -9.3821   -14.8307     0.0120 H       
  61 C61          -21.0259   -25.0600    -1.2644 C.3     
  62 C62          -22.2623   -24.7202    -2.0992 C.3     
  63 C63          -22.6093   -23.2412    -1.9179 C.3     
  64 N64          -23.7964   -22.9150    -2.7194 N.3     
  65 O65          -19.0914   -30.4347     1.8732 O.2     
  66 C66          -18.2989   -32.4058     0.8553 C.3     
  67 H67           -0.5459     1.8868    -0.8726 H       
  68 H68           -0.5289     1.8773     0.9072 H       
  69 H69            0.5123    -0.3556    -0.8948 H       
  70 H70            0.5293    -0.3651     0.8851 H       
  71 H71           -1.9435    -0.1821     0.9097 H       
  72 H72           -1.9605    -0.1726    -0.8702 H       
  73 H73           -0.9024    -2.4150    -0.8923 H       
  74 H74           -0.8854    -2.4246     0.8875 H       
  75 H75           -3.3581    -2.2415     0.9121 H       
  76 H76           -3.3751    -2.2320    -0.8677 H       
  77 H77           -2.3170    -4.4744    -0.8899 H       
  78 H78           -2.3000    -4.4840     0.8900 H       
  79 H79           -4.7728    -4.3010     0.9146 H       
  80 H80           -4.7898    -4.2914    -0.8653 H       
  81 H81           -3.7316    -6.5338    -0.8874 H       
  82 H82           -3.7146    -6.5434     0.8924 H       
  83 H83           -6.1874    -6.3604     0.9170 H       
  84 H84           -6.2044    -6.3508    -0.8628 H       
  85 H85           -5.1463    -8.5933    -0.8850 H       
  86 H86           -5.1293    -8.6028     0.8949 H       
  87 H87           -7.6020    -8.4198     0.9195 H       
  88 H88           -7.6190    -8.4102    -0.8604 H       
  89 H89           -6.5609   -10.6527    -0.8825 H       
  90 H90           -6.5439   -10.6622     0.8973 H       
  91 H91           -9.0167   -10.4792     0.9219 H       
  92 H92           -9.0337   -10.4697    -0.8579 H       
  93 H93           -7.9755   -12.7121    -0.8801 H       
  94 H94           -7.9586   -12.7217     0.8998 H       
  95 H95          -12.0124   -14.3660     0.9296 H       
  96 H96          -12.0294   -14.3565    -0.8502 H       
  97 H97          -13.4862   -16.4406     0.0425 H       
  98 H98          -12.1096   -18.7305    -0.8729 H       
  99 H99          -12.0926   -18.7400     0.9069 H       
 100 H100         -13.5162   -20.8491     0.0191 H       
 101 H101         -16.2741   -20.0688    -0.5398 H       
 102 H102         -17.6542   -22.3751    -0.3425 H       
 103 H103         -17.1328   -21.2619     1.4977 H       
 104 H104         -15.4570   -21.3977     2.0822 H       
 105 H105         -18.2455   -19.1081     1.4042 H       
 106 H106         -15.9498   -24.6547    -0.9955 H       
 107 H107         -17.0861   -25.0009    -3.2094 H       
 108 H108         -17.8415   -23.3988    -3.0335 H       
 109 H109         -17.6876   -26.5655    -1.7645 H       
 110 H110         -15.5963   -22.3552    -2.8972 H       
 111 H111         -14.8409   -23.9573    -3.0731 H       
 112 H112         -14.0173   -22.3597    -5.0811 H       
 113 H113         -14.8793   -22.6102    -6.5013 H       
 114 H114         -19.6166   -26.5973     0.4276 H       
 115 H115         -20.4729   -26.7376    -2.4975 H       
 116 H116         -21.5183   -27.1521    -1.1177 H       
 117 H117         -20.9463   -28.9168     0.0889 H       
 118 H118         -19.2527   -30.8909    -1.2387 H       
 119 H119         -20.9782   -32.5064    -0.3873 H       
 120 H120         -21.7946   -31.1513     0.4285 H       
 121 H121         -22.0785   -30.0085    -1.7536 H       
 122 H122         -21.2621   -31.3635    -2.5695 H       
 123 H123         -23.0242   -32.9106    -1.7632 H       
 124 H124         -23.8406   -31.5556    -0.9473 H       
 125 H125         -18.3881   -16.8317     2.3294 H       
 126 H126         -14.3647   -17.1580     3.7332 H       
 127 H127         -14.2321   -19.4361     2.8105 H       
 128 H128         -16.7777   -15.5590     4.5147 H       
 129 H129         -24.1244   -30.4127    -3.1295 H       
 130 H130         -23.3081   -31.7677    -3.9454 H       
 131 H131         -25.7020   -31.9959    -4.0203 H       
 132 H132         -25.0632   -33.2063    -3.0754 H       
 133 H133           1.4019     3.1452     0.0056 H       
 134 H134           1.9439     1.6943     0.8826 H       
 135 H135           1.9269     1.7038    -0.8972 H       
 136 H136         -21.2318   -24.8614    -0.2126 H       
 137 H137         -20.1864   -24.4469    -1.5923 H       
 138 H138         -22.0563   -24.9188    -3.1509 H       
 139 H139         -23.1017   -25.3333    -1.7712 H       
 140 H140         -22.8153   -23.0426    -0.8661 H       
 141 H141         -21.7698   -22.6281    -2.2458 H       
 142 H142         -24.0461   -21.9428    -2.6165 H       
 143 H143         -23.6534   -23.1509    -3.6899 H       
 144 H144         -17.2821   -32.2103     0.5148 H       
 145 H145         -18.2708   -32.8297     1.8590 H       
 146 H146         -18.7802   -33.1101     0.1767 H       
 147 C147          24.0436    40.7576    13.9797 C.3     
 148 C148          24.2212    39.2989    13.6454 C.2     
 149 N149          23.3192    38.3944    14.0752 N.am    
 150 C150          23.4918    36.9764    13.7502 C.3     
 151 C151          22.1511    36.2888    13.7739 C.2     
 152 N152          22.0645    34.9713    13.5034 N.am    
 153 C153          20.7611    34.3028    13.5265 C.3     
 154 C154          20.9544    32.8348    13.8069 C.2     
 155 N155          19.8864    32.0155    13.8750 N.am    
 156 O156          22.0709    32.3907    13.9714 O.2     
 157 C157          20.0742    30.5884    14.1477 C.3     
 158 C158          18.8208    30.0261    14.7671 C.2     
 159 C159          20.3701    29.8536    12.8386 C.3     
 160 C160          21.7071    30.3371    12.2733 C.3     
 161 O161          21.9833    29.6509    11.0507 O.3     
 162 C162          23.2165    30.0310    10.4367 C.3     
 163 N163          18.7623    28.7226    15.1049 N.am    
 164 O164          17.8647    30.7465    14.9617 O.2     
 165 C165          17.5437    28.1760    15.7071 C.3     
 166 C166          17.8905    26.9601    16.5272 C.2     
 167 N167          16.9848    26.4418    17.3801 N.am    
 168 O168          18.9846    26.4480    16.4196 O.2     
 169 C169          17.2785    25.1957    18.0923 C.3     
 170 C170          16.1319    24.2339    17.9156 C.2     
 171 O171          15.1646    24.5574    17.2595 O.2     
 172 N172          16.1814    23.0142    18.4868 N.am    
 173 C173          15.0667    22.0792    18.3151 C.3     
 174 C174          13.9933    22.3666    19.3667 C.3     
 175 C175          15.5659    20.6668    18.4799 C.2     
 176 O176          16.7373    20.4615    18.7174 O.2     
 177 N177          14.7104    19.6318    18.3633 N.am    
 178 C178          15.1957    18.2589    18.5235 C.3     
 179 C179          15.2070    17.8919    20.0088 C.3     
 180 C180          14.2865    17.3148    17.7797 C.2     
 181 O181          13.3276    17.7463    17.1754 O.2     
 182 N182          14.5389    15.9909    17.7862 N.am    
 183 C183          13.6551    15.0731    17.0632 C.3     
 184 C184          12.4670    14.7021    17.9530 C.3     
 185 C185          14.4173    13.8257    16.6970 C.2     
 186 O186          15.5839    13.7143    17.0093 O.2     
 187 N187          13.8025    12.8339    16.0226 N.am    
 188 C188          11.6226    15.9492    18.2224 C.3     
 189 C189          10.4346    15.5783    19.1123 C.3     
 190 N190           9.6260    16.7724    19.3702 N.pl3   
 191 C191           8.4983    16.6834    20.1516 C.2     
 192 C192          16.5610    27.7827    14.6024 C.3     
 193 C193          15.2353    27.3479    15.2302 C.3     
 194 O194          16.3367    28.9027    13.7436 O.3     
 195 C195          17.4707    25.4923    19.5809 C.3     
 196 C196          18.7133    26.3234    19.7712 C.2     
 197 O197          19.1227    26.6450    21.0084 O.3     
 198 O198          19.3410    26.7004    18.8101 O.2     
 199 C199          13.3984    23.7549    19.1220 C.3     
 200 C200          12.3250    24.0424    20.1737 C.3     
 201 C201          11.7301    25.4306    19.9290 C.3     
 202 N202          10.6995    25.7066    20.9387 N.3     
 203 C203          16.2081    18.7555    20.7320 C.ar    
 204 C204          15.8135    19.9661    21.2710 C.ar    
 205 C205          17.5185    18.3333    20.8603 C.ar    
 206 C206          18.4380    19.1229    21.5231 C.ar    
 207 C207          18.0458    20.3404    22.0602 C.ar    
 208 C208          16.7293    20.7595    21.9343 C.ar    
 209 N209           7.7395    17.8040    20.3937 N.pl3   
 210 N210           8.1486    15.5366    20.6629 N.2     
 211 C211          20.0747    34.4769    12.1702 C.3     
 212 O212          20.8294    33.7990    11.1638 O.3     
 213 O213          21.1499    36.9209    14.0364 O.2     
 214 C214          24.4169    36.3259    14.7808 C.3     
 215 C215          25.8142    36.9394    14.6709 C.3     
 216 C216          26.7392    36.2889    15.7015 C.3     
 217 N217          28.0772    36.8763    15.5963 N.pl3   
 218 C218          29.0841    36.4462    16.4278 C.2     
 219 N219          28.8354    35.4649    17.3581 N.pl3   
 220 N220          30.2745    36.9688    16.3342 N.2     
 221 O221          25.1758    38.9389    12.9896 O.2     
 222 C222          14.5434    11.6213    15.6666 C.3     
 223 C223          15.2837    11.8463    14.3734 C.2     
 224 C224          13.5653    10.4569    15.4984 C.3     
 225 C225          12.9176    10.1361    16.8469 C.3     
 226 N226          16.0381    10.8605    13.8484 N.am    
 227 O227          15.2005    12.9144    13.8050 O.2     
 228 C228          11.8297     9.0781    16.6514 C.3     
 229 O229          18.9484    21.1188    22.7131 O.3     
 230 N230          25.3523    41.4248    13.9709 N.3     
 231 C231          23.1308    41.4115    12.9405 C.3     
 232 C232          26.0021    41.3267    15.2847 C.3     
 233 C233          22.8405    42.8558    13.3535 C.3     
 234 N234          23.9693    43.7673    13.5565 N.2     
 235 C235          21.5050    43.4373    12.8852 C.3     
 236 C236          13.9807     9.6026    17.8093 C.3     
 237 N237          23.4290    43.3614    14.5962 N.2     
 238 H238          23.5945    40.8517    14.9684 H       
 239 H239          22.5557    38.6823    14.5997 H       
 240 H240          23.9310    36.8821    12.7571 H       
 241 H241          22.8653    34.4656    13.2935 H       
 242 H242          20.1407    34.7432    14.3069 H       
 243 H243          18.9934    32.3707    13.7435 H       
 244 H244          20.9099    30.4567    14.8351 H       
 245 H245          20.4219    28.7814    13.0275 H       
 246 H246          19.5765    30.0580    12.1199 H       
 247 H247          21.6552    31.4094    12.0845 H       
 248 H248          22.5006    30.1327    12.9920 H       
 249 H249          23.1960    31.0969    10.2097 H       
 250 H250          24.0414    29.8202    11.1173 H       
 251 H251          23.3527    29.4657     9.5147 H       
 252 H252          19.5269    28.1465    14.9493 H       
 253 H253          17.0864    28.9289    16.3491 H       
 254 H254          16.1384    26.8939    17.5224 H       
 255 H255          18.1895    24.7531    17.6894 H       
 256 H256          16.9550    22.7554    19.0116 H       
 257 H257          14.6411    22.2002    17.3190 H       
 258 H258          13.2057    21.6164    19.2965 H       
 259 H259          14.4398    22.3327    20.3605 H       
 260 H260          13.7735    19.7961    18.1734 H       
 261 H261          16.2063    18.1815    18.1224 H       
 262 H262          14.2152    18.0544    20.4307 H       
 263 H263          15.4827    16.8435    20.1220 H       
 264 H264          15.3058    15.6457    18.2695 H       
 265 H265          13.2926    15.5568    16.1561 H       
 266 H266          11.8568    13.9518    17.4502 H       
 267 H267          12.8324    14.2997    18.8978 H       
 268 H268          12.8694    12.9230    15.7728 H       
 269 H269          12.2328    16.6996    18.7252 H       
 270 H270          11.2572    16.3517    17.2776 H       
 271 H271           9.8244    14.8279    18.6095 H       
 272 H272          10.8000    15.1758    20.0571 H       
 273 H273           9.8863    17.6258    18.9897 H       
 274 H274          16.9765    26.9582    14.0231 H       
 275 H275          14.8712    28.1341    15.8915 H       
 276 H276          14.5028    27.1667    14.4435 H       
 277 H277          15.3872    26.4329    15.8028 H       
 278 H278          17.1359    29.2325    13.3104 H       
 279 H279          16.6064    26.0396    19.9569 H       
 280 H280          17.5733    24.5550    20.1278 H       
 281 H281          19.9252    27.1797    21.0802 H       
 282 H282          14.1860    24.5051    19.1923 H       
 283 H283          12.9518    23.7888    18.1283 H       
 284 H284          11.5374    23.2921    20.1035 H       
 285 H285          12.7715    24.0084    21.1674 H       
 286 H286          12.5177    26.1809    19.9992 H       
 287 H287          11.2835    25.4645    18.9352 H       
 288 H288          10.2910    26.6185    20.7985 H       
 289 H289           9.9904    24.9887    20.9373 H       
 290 H290          14.7884    20.2918    21.1730 H       
 291 H291          17.8233    17.3853    20.4423 H       
 292 H292          19.4614    18.7925    21.6234 H       
 293 H293          16.4215    21.7069    22.3516 H       
 294 H294           7.9998    18.6575    20.0132 H       
 295 H295           6.9439    17.7412    20.9450 H       
 296 H296           7.3530    15.4738    21.2142 H       
 297 H297          19.0697    34.0572    12.2151 H       
 298 H298          20.0148    35.5377    11.9268 H       
 299 H299          20.4518    33.8672    10.2762 H       
 300 H300          24.0225    36.4974    15.7824 H       
 301 H301          24.4748    35.2540    14.5917 H       
 302 H302          26.2085    36.7679    13.6693 H       
 303 H303          25.7563    38.0113    14.8600 H       
 304 H304          26.3449    36.4604    16.7031 H       
 305 H305          26.7971    35.2170    15.5124 H       
 306 H306          28.2527    37.5686    14.9400 H       
 307 H307          27.9495    35.0760    17.4277 H       
 308 H308          29.5458    35.1615    17.9447 H       
 309 H309          30.9849    36.6654    16.9209 H       
 310 H310          15.2562    11.3858    16.4570 H       
 311 H311          12.7927    10.7322    14.7806 H       
 312 H312          14.1025     9.5805    15.1358 H       
 313 H313          12.4738    11.0413    17.2613 H       
 314 H314          16.1046    10.0062    14.3030 H       
 315 H315          16.5145    11.0054    13.0160 H       
 316 H316          12.2856     8.1452    16.3197 H       
 317 H317          11.3097     8.9130    17.5950 H       
 318 H318          11.1189     9.4224    15.9002 H       
 319 H319          19.4136    21.7451    22.1419 H       
 320 H320          25.9448    41.0494    13.2456 H       
 321 H321          23.6232    41.4037    11.9681 H       
 322 H322          22.1949    40.8563    12.8782 H       
 323 H323          26.9275    41.9026    15.2763 H       
 324 H324          25.3349    41.7223    16.0505 H       
 325 H325          26.2261    40.2823    15.5022 H       
 326 H326          20.6873    42.8395    13.2878 H       
 327 H327          21.4121    44.4644    13.2381 H       
 328 H328          21.4640    43.4222    11.7961 H       
 329 H329          14.7557    10.3563    17.9486 H       
 330 H330          13.5192     9.3741    18.7700 H       
 331 H331          14.4245     8.6974    17.3949 H       
@<TRIPOS>BOND
   1    1    2 1
   2    1   59 1
   3    1   67 1
   4    1   68 1
   5    2    3 1
   6    2   69 1
   7    2   70 1
   8    3    4 1
   9    3   71 1
  10    3   72 1
  11    4    5 1
  12    4   73 1
  13    4   74 1
  14    5    6 1
  15    5   75 1
  16    5   76 1
  17    6    7 1
  18    6   77 1
  19    6   78 1
  20    7    8 1
  21    7   79 1
  22    7   80 1
  23    8    9 1
  24    8   81 1
  25    8   82 1
  26    9   10 1
  27    9   83 1
  28    9   84 1
  29   10   11 1
  30   10   85 1
  31   10   86 1
  32   11   12 1
  33   11   87 1
  34   11   88 1
  35   12   13 1
  36   12   89 1
  37   12   90 1
  38   13   14 1
  39   13   91 1
  40   13   92 1
  41   14   15 1
  42   14   93 1
  43   14   94 1
  44   15   16 am
  45   15   17 2
  46   16   18 1
  47   16   60 1
  48   18   19 1
  49   18   95 1
  50   18   96 1
  51   19   20 am
  52   19   21 2
  53   20   22 1
  54   20   97 1
  55   22   23 1
  56   22   98 1
  57   22   99 1
  58   23   24 am
  59   23   25 2
  60   24   26 1
  61   24  100 1
  62   26   27 1
  63   26   30 1
  64   26  101 1
  65   27   28 2
  66   27   29 am
  67   29   33 1
  68   29  102 1
  69   30   31 1
  70   30  103 1
  71   30  104 1
  72   31   32 ar
  73   31   54 ar
  74   32   51 ar
  75   32  105 1
  76   33   34 1
  77   33   35 1
  78   33  106 1
  79   34   38 1
  80   34  107 1
  81   34  108 1
  82   35   36 2
  83   35   37 am
  84   37   41 1
  85   37  109 1
  86   38   39 1
  87   38  110 1
  88   38  111 1
  89   39   40 am
  90   39   56 2
  91   40  112 1
  92   40  113 1
  93   41   42 1
  94   41   43 1
  95   41  114 1
  96   42   61 1
  97   42  115 1
  98   42  116 1
  99   43   44 2
 100   43   45 am
 101   45   46 1
 102   45  117 1
 103   46   47 1
 104   46   48 1
 105   46  118 1
 106   47   49 1
 107   47  119 1
 108   47  120 1
 109   48   65 2
 110   48   66 1
 111   49   50 1
 112   49  121 1
 113   49  122 1
 114   50   57 1
 115   50  123 1
 116   50  124 1
 117   51   52 ar
 118   51  125 1
 119   52   53 ar
 120   52   55 1
 121   53   54 ar
 122   53  126 1
 123   54  127 1
 124   55  128 1
 125   57   58 1
 126   57  129 1
 127   57  130 1
 128   58  131 1
 129   58  132 1
 130   59  133 1
 131   59  134 1
 132   59  135 1
 133   61   62 1
 134   61  136 1
 135   61  137 1
 136   62   63 1
 137   62  138 1
 138   62  139 1
 139   63   64 1
 140   63  140 1
 141   63  141 1
 142   64  142 1
 143   64  143 1
 144   66  144 1
 145   66  145 1
 146   66  146 1
 147  147  148 1
 148  147  230 1
 149  147  231 1
 150  147  238 1
 151  148  149 am
 152  148  221 2
 153  149  150 1
 154  149  239 1
 155  150  151 1
 156  150  214 1
 157  150  240 1
 158  151  152 am
 159  151  213 2
 160  152  153 1
 161  152  241 1
 162  153  154 1
 163  153  211 1
 164  153  242 1
 165  154  155 am
 166  154  156 2
 167  155  157 1
 168  155  243 1
 169  157  158 1
 170  157  159 1
 171  157  244 1
 172  158  163 am
 173  158  164 2
 174  159  160 1
 175  159  245 1
 176  159  246 1
 177  160  161 1
 178  160  247 1
 179  160  248 1
 180  161  162 1
 181  162  249 1
 182  162  250 1
 183  162  251 1
 184  163  165 1
 185  163  252 1
 186  165  166 1
 187  165  192 1
 188  165  253 1
 189  166  167 am
 190  166  168 2
 191  167  169 1
 192  167  254 1
 193  169  170 1
 194  169  195 1
 195  169  255 1
 196  170  171 2
 197  170  172 am
 198  172  173 1
 199  172  256 1
 200  173  174 1
 201  173  175 1
 202  173  257 1
 203  174  199 1
 204  174  258 1
 205  174  259 1
 206  175  176 2
 207  175  177 am
 208  177  178 1
 209  177  260 1
 210  178  179 1
 211  178  180 1
 212  178  261 1
 213  179  203 1
 214  179  262 1
 215  179  263 1
 216  180  181 2
 217  180  182 am
 218  182  183 1
 219  182  264 1
 220  183  184 1
 221  183  185 1
 222  183  265 1
 223  184  188 1
 224  184  266 1
 225  184  267 1
 226  185  186 2
 227  185  187 am
 228  187  222 1
 229  187  268 1
 230  188  189 1
 231  188  269 1
 232  188  270 1
 233  189  190 1
 234  189  271 1
 235  189  272 1
 236  190  191 1
 237  190  273 1
 238  191  209 1
 239  191  210 2
 240  192  193 1
 241  192  194 1
 242  192  274 1
 243  193  275 1
 244  193  276 1
 245  193  277 1
 246  194  278 1
 247  195  196 1
 248  195  279 1
 249  195  280 1
 250  196  197 1
 251  196  198 2
 252  197  281 1
 253  199  200 1
 254  199  282 1
 255  199  283 1
 256  200  201 1
 257  200  284 1
 258  200  285 1
 259  201  202 1
 260  201  286 1
 261  201  287 1
 262  202  288 1
 263  202  289 1
 264  203  204 ar
 265  203  205 ar
 266  204  208 ar
 267  204  290 1
 268  205  206 ar
 269  205  291 1
 270  206  207 ar
 271  206  292 1
 272  207  208 ar
 273  207  229 1
 274  208  293 1
 275  209  294 1
 276  209  295 1
 277  210  296 1
 278  211  212 1
 279  211  297 1
 280  211  298 1
 281  212  299 1
 282  214  215 1
 283  214  300 1
 284  214  301 1
 285  215  216 1
 286  215  302 1
 287  215  303 1
 288  216  217 1
 289  216  304 1
 290  216  305 1
 291  217  218 1
 292  217  306 1
 293  218  219 1
 294  218  220 2
 295  219  307 1
 296  219  308 1
 297  220  309 1
 298  222  223 1
 299  222  224 1
 300  222  310 1
 301  223  226 am
 302  223  227 2
 303  224  225 1
 304  224  311 1
 305  224  312 1
 306  225  228 1
 307  225  236 1
 308  225  313 1
 309  226  314 1
 310  226  315 1
 311  228  316 1
 312  228  317 1
 313  228  318 1
 314  229  319 1
 315  230  232 1
 316  230  320 1
 317  231  233 1
 318  231  321 1
 319  231  322 1
 320  232  323 1
 321  232  324 1
 322  232  325 1
 323  233  234 1
 324  233  235 1
 325  233  237 1
 326  234  237 2
 327  235  326 1
 328  235  327 1
 329  235  328 1
 330  236  329 1
 331  236  330 1
 332  236  331 1

#	End of record

