#	Name: ASD01913220
#	Creating user name:	WinNT
#	Creation time:	15. 06. 2019 20:01

#	Modifying user name:	WinNT
#	Modification time:	15. 06. 2019 20:01

#	Program:	/corina/corina34_cracker 3.40 0067  02.08.2006

@<TRIPOS>MOLECULE
ASD01913220
  45   48    0    0    0
SMALL
NO_CHARGES


@<TRIPOS>ATOM
   1 C1             3.0129     5.0837     0.6593 C.3     
   2 C2             3.3662     5.8110    -0.6164 C.2     
   3 C3             3.6908     5.1875    -1.7694 C.2     
   4 C4             3.7427     3.6937    -1.9549 C.3     
   5 C5             3.8117     3.0262    -0.5753 C.3     
   6 N6             2.8307     3.6618     0.3164 N.am    
   7 C7             3.7696     7.3490    -2.0674 C.2     
   8 N8             3.4206     7.1279    -0.8267 N.2     
   9 N9             3.9485     6.1600    -2.6877 N.pl3   
  10 C10            1.7901     2.9608     0.8087 C.2     
  11 O11            1.5914     1.8221     0.4317 O.2     
  12 C12            0.8914     3.5758     1.8057 C.ar    
  13 C13            1.4041     4.4571     2.7566 C.ar    
  14 C14            0.5512     5.0342     3.6948 C.ar    
  15 C15           -0.8186     4.7236     3.6755 C.ar    
  16 C16           -1.3175     3.8452     2.7246 C.ar    
  17 C17           -0.4751     3.2787     1.7927 C.ar    
  18 C18            1.0690     5.9401     4.6755 C.1     
  19 C19            1.4935     6.6829     5.4794 C.1     
  20 C20            2.0114     7.5889     6.4601 C.ar    
  21 C21            1.1489     8.1635     7.3979 C.ar    
  22 C22            1.6651     9.0359     8.3383 C.ar    
  23 C23            3.0267     9.3083     8.3141 C.ar    
  24 C24            3.8236     8.7052     7.3585 C.ar    
  25 N25            3.3103     7.8732     6.4755 N.ar    
  26 O26           -1.6534     5.2821     4.5867 O.3     
  27 C27           -3.0339     4.9215     4.5086 C.3     
  28 H28            3.8211     5.1901     1.3830 H       
  29 H29            2.0884     5.4871     1.0724 H       
  30 H30            2.8469     3.3593    -2.4782 H       
  31 H31            4.6271     3.4280    -2.5340 H       
  32 H32            3.5827     1.9649    -0.6721 H       
  33 H33            4.8126     3.1479    -0.1612 H       
  34 H34            3.8943     8.3207    -2.5221 H       
  35 H35            4.2110     6.0255    -3.6118 H       
  36 H36            2.4583     4.6913     2.7660 H       
  37 H37           -2.3710     3.6077     2.7120 H       
  38 H38           -0.8709     2.5994     1.0523 H       
  39 H39            0.0946     7.9299     7.3879 H       
  40 H40            1.0234     9.4957     9.0753 H       
  41 H41            3.4595     9.9857     9.0353 H       
  42 H42            4.8826     8.9162     7.3381 H       
  43 H43           -3.1360     3.8443     4.6394 H       
  44 H44           -3.5890     5.4370     5.2923 H       
  45 H45           -3.4298     5.2083     3.5343 H       
@<TRIPOS>BOND
   1    1    2 1
   2    1    6 1
   3    1   28 1
   4    1   29 1
   5    2    3 2
   6    2    8 1
   7    3    4 1
   8    3    9 1
   9    4    5 1
  10    4   30 1
  11    4   31 1
  12    5    6 1
  13    5   32 1
  14    5   33 1
  15    6   10 am
  16    7    8 2
  17    7    9 1
  18    7   34 1
  19    9   35 1
  20   10   11 2
  21   10   12 1
  22   12   13 ar
  23   12   17 ar
  24   13   14 ar
  25   13   36 1
  26   14   15 ar
  27   14   18 1
  28   15   16 ar
  29   15   26 1
  30   16   17 ar
  31   16   37 1
  32   17   38 1
  33   18   19 3
  34   19   20 1
  35   20   21 ar
  36   20   25 ar
  37   21   22 ar
  38   21   39 1
  39   22   23 ar
  40   22   40 1
  41   23   24 ar
  42   23   41 1
  43   24   25 ar
  44   24   42 1
  45   26   27 1
  46   27   43 1
  47   27   44 1
  48   27   45 1

#	End of record

