#	Name: ASD03540055
#	Creating user name:	WinNT
#	Creation time:	15. 06. 2019 20:42

#	Modifying user name:	WinNT
#	Modification time:	15. 06. 2019 20:42

#	Program:	/corina/corina34_cracker 3.40 0067  02.08.2006

@<TRIPOS>MOLECULE
ASD03540055
  62   64    0    0    0
SMALL
NO_CHARGES


@<TRIPOS>ATOM
   1 C1            -0.0169     1.3921     0.0097 C.ar    
   2 C2             0.0021    -0.0041     0.0020 C.ar    
   3 C3            -1.1849    -0.7068     0.0101 C.ar    
   4 C4            -2.3924    -0.0313     0.0257 C.ar    
   5 C5            -2.4184     1.3521     0.0329 C.ar    
   6 C6            -1.2388     2.0673     0.0308 C.ar    
   7 C7            -3.6851    -0.8059     0.0344 C.3     
   8 N8            -4.0902    -1.0643     1.4183 N.am    
   9 C9            -4.8876    -0.1543     2.0533 C.2     
  10 C10           -3.6702    -2.1886     2.0170 C.2     
  11 C11           -5.2790    -0.3718     3.3443 C.2     
  12 C12           -6.1144     0.5682     4.0293 C.1     
  13 C13           -6.7992     1.3388     4.5908 C.1     
  14 C14           -5.1601    -1.8831     5.2764 C.2     
  15 C15           -4.8131    -1.6116     4.0161 C.2     
  16 C16           -7.6346     2.2787     5.2758 C.2     
  17 N17           -8.0090     2.0447     6.5492 N.am    
  18 O18           -8.0068     3.2898     4.7077 O.2     
  19 C19           -8.8637     3.0063     7.2500 C.3     
  20 C20           -9.1339     2.5126     8.6480 C.ar    
  21 N21           -4.0034    -2.4901     3.2852 N.am    
  22 C22           -8.2860     2.8645     9.6800 C.ar    
  23 C23           -8.5357     2.4100    10.9670 C.ar    
  24 C24           -9.6366     1.6031    11.2137 C.ar    
  25 C25          -10.4817     1.2539    10.1779 C.ar    
  26 C26          -10.2338     1.7124     8.8975 C.ar    
  27 O27           -2.9667    -2.9597     1.3940 O.2     
  28 C28            1.2503     2.1513     0.0017 C.2     
  29 O29            2.3119     1.5611    -0.0116 O.2     
  30 O30            1.2286     3.4982     0.0091 O.3     
  31 O31           -7.7027     2.7544    11.9840 O.3     
  32 C32           -8.0213     2.2503    13.2826 C.3     
  33 C33           -6.9788     2.7400    14.2897 C.3     
  34 C34           -7.3199     2.2002    15.6801 C.3     
  35 C35           -6.2931     2.6826    16.6721 C.2     
  36 O36           -5.3819     3.3859    16.3047 O.2     
  37 O37           -6.3907     2.3308    17.9638 O.3     
  38 H38            0.9439    -0.5325    -0.0105 H       
  39 H39           -1.1717    -1.7867     0.0038 H       
  40 H40           -3.3644     1.8731     0.0448 H       
  41 H41           -1.2605     3.1471     0.0368 H       
  42 H42           -4.4592    -0.2264    -0.4687 H       
  43 H43           -3.5445    -1.7533    -0.4859 H       
  44 H44           -5.2083     0.7372     1.5349 H       
  45 H45           -5.7889    -1.1962     5.8234 H       
  46 H46           -4.8119    -2.7897     5.7490 H       
  47 H47           -7.7126     1.2395     7.0017 H       
  48 H48           -8.3612     3.9724     7.2967 H       
  49 H49           -9.8066     3.1127     6.7136 H       
  50 H50           -3.6841    -3.3111     3.6912 H       
  51 H51           -7.4293     3.4925     9.4853 H       
  52 H52           -9.8329     1.2478    12.2145 H       
  53 H53          -11.3391     0.6257    10.3695 H       
  54 H54          -10.8955     1.4383     8.0892 H       
  55 H55            2.0829     3.9512     0.0034 H       
  56 H56           -9.0079     2.6066    13.5787 H       
  57 H57           -8.0203     1.1605    13.2596 H       
  58 H58           -5.9921     2.3837    13.9937 H       
  59 H59           -6.9797     3.8298    14.3128 H       
  60 H60           -8.3065     2.5565    15.9762 H       
  61 H61           -7.3190     1.1105    15.6571 H       
  62 H62           -5.7086     2.6646    18.5624 H       
@<TRIPOS>BOND
   1    1    2 ar
   2    1   28 1
   3    1    6 ar
   4    2    3 ar
   5    2   38 1
   6    3    4 ar
   7    3   39 1
   8    4    5 ar
   9    4    7 1
  10    5    6 ar
  11    5   40 1
  12    6   41 1
  13    7    8 1
  14    7   42 1
  15    7   43 1
  16    8    9 1
  17    8   10 am
  18    9   11 2
  19    9   44 1
  20   10   27 2
  21   10   21 am
  22   11   12 1
  23   11   15 1
  24   12   13 3
  25   13   16 1
  26   14   15 2
  27   14   45 1
  28   14   46 1
  29   15   21 1
  30   16   17 am
  31   16   18 2
  32   17   19 1
  33   17   47 1
  34   19   20 1
  35   19   48 1
  36   19   49 1
  37   20   22 ar
  38   20   26 ar
  39   21   50 1
  40   22   23 ar
  41   22   51 1
  42   23   24 ar
  43   23   31 1
  44   24   25 ar
  45   24   52 1
  46   25   26 ar
  47   25   53 1
  48   26   54 1
  49   28   29 2
  50   28   30 1
  51   30   55 1
  52   31   32 1
  53   32   33 1
  54   32   56 1
  55   32   57 1
  56   33   34 1
  57   33   58 1
  58   33   59 1
  59   34   35 1
  60   34   60 1
  61   34   61 1
  62   35   36 2
  63   35   37 1
  64   37   62 1

#	End of record

