#	Name: ASD01912906
#	Creating user name:	WinNT
#	Creation time:	15. 06. 2019 20:00

#	Modifying user name:	WinNT
#	Modification time:	15. 06. 2019 20:00

#	Program:	/corina/corina34_cracker 3.40 0067  02.08.2006

@<TRIPOS>MOLECULE
ASD01912906
  39   42    0    0    0
SMALL
NO_CHARGES


@<TRIPOS>ATOM
   1 C1            -0.0165     1.3669     0.0096 C.2     
   2 N2             0.0021    -0.0041     0.0020 N.pl3   
   3 C3            -1.2023    -0.6921     0.0098 C.2     
   4 C4            -2.3629    -0.0499     0.0243 C.2     
   5 N5            -2.4359     1.3308     0.0320 N.am    
   6 C6            -1.3019     2.0668     0.0309 C.2     
   7 C7             1.3015     1.7836    -0.0008 C.2     
   8 C8             2.0550     0.6110    -0.0143 C.2     
   9 N9             1.2244    -0.4045    -0.0118 N.2     
  10 O10           -1.3488     3.2837     0.0376 O.2     
  11 C11           -3.6794     1.9643     0.0469 C.ar    
  12 C12            3.5595     0.5249    -0.0291 C.3     
  13 O13            4.1121     1.8428    -0.0273 O.3     
  14 C14            5.4681     1.9436    -0.0397 C.ar    
  15 C15            6.0706     3.1929    -0.0388 C.ar    
  16 C16            7.4481     3.2953    -0.0514 C.ar    
  17 C17            8.2286     2.1489    -0.0646 C.ar    
  18 C18            7.6261     0.8996    -0.0646 C.ar    
  19 C19            6.2487     0.7972    -0.0476 C.ar    
  20 C20           -4.8374     1.2040     0.1591 C.ar    
  21 C21           -6.0647     1.8437     0.1732 C.ar    
  22 C22           -6.0906     3.2296     0.0739 C.ar    
  23 C23           -4.8977     3.9221    -0.0352 C.ar    
  24 N24           -3.7438     3.2834    -0.0406 N.ar    
  25 O25            9.5846     2.2497    -0.0779 O.3     
  26 F26           -7.2673     3.8932     0.0833 F       
  27 H27           -1.1950    -1.7720     0.0036 H       
  28 H28           -3.2784    -0.6227     0.0300 H       
  29 H29            1.6684     2.7994     0.0012 H       
  30 H30            3.9013    -0.0136     0.8548 H       
  31 H31            3.8843    -0.0041    -0.9251 H       
  32 H32            5.4628     4.0855    -0.0285 H       
  33 H33            7.9172     4.2681    -0.0514 H       
  34 H34            8.2339     0.0069    -0.0749 H       
  35 H35            5.7795    -0.1756    -0.0476 H       
  36 H36           -4.7804     0.1281     0.2340 H       
  37 H37           -6.9811     1.2788     0.2590 H       
  38 H38           -4.9115     4.9993    -0.1127 H       
  39 H39            9.9859     2.2749     0.8015 H       
@<TRIPOS>BOND
   1    1    2 1
   2    1    7 2
   3    1    6 1
   4    2    3 1
   5    2    9 1
   6    3    4 2
   7    3   27 1
   8    4    5 1
   9    4   28 1
  10    5    6 am
  11    5   11 1
  12    6   10 2
  13    7    8 1
  14    7   29 1
  15    8    9 2
  16    8   12 1
  17   11   20 ar
  18   11   24 ar
  19   12   13 1
  20   12   30 1
  21   12   31 1
  22   13   14 1
  23   14   15 ar
  24   14   19 ar
  25   15   16 ar
  26   15   32 1
  27   16   17 ar
  28   16   33 1
  29   17   18 ar
  30   17   25 1
  31   18   19 ar
  32   18   34 1
  33   19   35 1
  34   20   21 ar
  35   20   36 1
  36   21   22 ar
  37   21   37 1
  38   22   23 ar
  39   22   26 1
  40   23   24 ar
  41   23   38 1
  42   25   39 1

#	End of record

