#	Name: ASD01870663
#	Creating user name:	WinNT
#	Creation time:	15. 06. 2019 19:39

#	Modifying user name:	WinNT
#	Modification time:	15. 06. 2019 19:39

#	Program:	/corina/corina34_cracker 3.40 0067  02.08.2006

@<TRIPOS>MOLECULE
ASD01870663
  29   30    0    0    0
SMALL
NO_CHARGES


@<TRIPOS>ATOM
   1 C1            -0.0169     1.3961     0.0097 C.ar    
   2 C2             0.0021    -0.0041     0.0020 C.ar    
   3 C3             1.2237    -0.6853    -0.0175 C.ar    
   4 N4             2.3576    -0.0076    -0.0218 N.ar    
   5 C5             2.3922     1.3156    -0.0127 C.ar    
   6 C6             1.2035     2.0712     0.0017 C.ar    
   7 C7            -1.2658    -0.7512     0.0206 C.2     
   8 C8            -1.2089    -2.2404    -0.2507 C.3     
   9 C9            -0.0037    -2.7996     0.5167 C.3     
  10 C10            1.2794    -2.1901    -0.0407 C.3     
  11 C11           -0.1342    -2.4460     1.9996 C.3     
  12 C12            0.0424    -4.3205     0.3566 C.3     
  13 O13           -2.3194    -0.1940     0.2457 O.2     
  14 N14            3.6087     1.9633    -0.0168 N.pl3   
  15 C15            1.2472     3.5025     0.0075 C.1     
  16 N16            1.2819     4.6379     0.0121 N.1     
  17 H17           -0.9509     1.9384     0.0171 H       
  18 H18           -2.1248    -2.7163     0.0998 H       
  19 H19           -1.0832    -2.4181    -1.3188 H       
  20 H20            1.4175    -2.5264    -1.0682 H       
  21 H21            2.1245    -2.5255     0.5604 H       
  22 H22           -1.0514    -2.8805     2.3973 H       
  23 H23            0.7221    -2.8433     2.5446 H       
  24 H24           -0.1663    -1.3625     2.1133 H       
  25 H25            0.1360    -4.5719    -0.6999 H       
  26 H26            0.8986    -4.7175     0.9018 H       
  27 H27           -0.8748    -4.7555     0.7537 H       
  28 H28            4.4316     1.4498    -0.0262 H       
  29 H29            3.6421     2.9327    -0.0101 H       
@<TRIPOS>BOND
   1    1    2 ar
   2    1    6 ar
   3    1   17 1
   4    2    3 ar
   5    2    7 1
   6    3    4 ar
   7    3   10 1
   8    4    5 ar
   9    5    6 ar
  10    5   14 1
  11    6   15 1
  12    7    8 1
  13    7   13 2
  14    8    9 1
  15    8   18 1
  16    8   19 1
  17    9   10 1
  18    9   11 1
  19    9   12 1
  20   10   20 1
  21   10   21 1
  22   11   22 1
  23   11   23 1
  24   11   24 1
  25   12   25 1
  26   12   26 1
  27   12   27 1
  28   14   28 1
  29   14   29 1
  30   15   16 3

#	End of record

