#	Name: ASD02448140
#	Creating user name:	WinNT
#	Creation time:	15. 06. 2019 20:21

#	Modifying user name:	WinNT
#	Modification time:	15. 06. 2019 20:21

#	Program:	/corina/corina34_cracker 3.40 0067  02.08.2006

@<TRIPOS>MOLECULE
ASD02448140
  94  100    0    0    0
SMALL
NO_CHARGES


@<TRIPOS>ATOM
   1 C1            -0.3338     1.4683     0.1658 C.ar    
   2 C2            -0.2062     0.0945     0.0954 C.ar    
   3 C3             1.0548    -0.4870     0.0646 C.ar    
   4 C4             2.1870     0.3128     0.1045 C.ar    
   5 C5             2.0561     1.6929     0.1752 C.ar    
   6 C6             0.7919     2.2684     0.2058 C.ar    
   7 N7             3.1939     2.5021     0.2161 N.am    
   8 C8             4.5378     2.1959    -0.2909 C.3     
   9 C9             5.4802     3.3314    -0.0532 C.2     
  10 N10            4.9382     4.3914     0.5627 N.am    
  11 S11            3.3358     4.0406     0.8456 S.o2    
  12 O12            6.6445     3.2963    -0.3910 O.2     
  13 O13            2.5654     4.9093     0.0264 O.2     
  14 O14            3.1736     3.9265     2.2527 O.2     
  15 N15            1.1830    -1.8814    -0.0064 N.pl3   
  16 C16            1.8718    -2.5861    -0.9573 C.2     
  17 C17            0.6515    -2.7845     0.8589 C.2     
  18 N18            0.9823    -3.9846     0.4716 N.2     
  19 C19            1.7344    -3.9009    -0.6447 C.2     
  20 C20            2.3096    -5.0424    -1.3978 C.ar    
  21 C21            2.0897    -6.3492    -0.9634 C.ar    
  22 C22            3.0667    -4.8128    -2.5450 C.ar    
  23 C23            3.5992    -5.8778    -3.2423 C.ar    
  24 C24            3.3828    -7.1734    -2.8045 C.ar    
  25 C25            2.6273    -7.4081    -1.6688 C.ar    
  26 C26            0.6977    -2.4100     3.2908 C.ar    
  27 C27            1.3715    -1.2460     3.6139 C.ar    
  28 C28            0.8252    -3.5331     4.0881 C.ar    
  29 C29            1.6262    -3.4978     5.2114 C.ar    
  30 C30            2.3074    -2.3278     5.5417 C.ar    
  31 C31            2.1756    -1.1994     4.7346 C.ar    
  32 C32            3.1696    -2.2835     6.7483 C.ar    
  33 Cl33           4.0553    -8.5084    -3.6871 Cl      
  34 Cl34           1.1427    -6.6445     0.4613 Cl      
  35 C35           -0.1834    -2.4529     2.0689 C.3     
  36 C36            3.8503    -1.1127     7.0775 C.ar    
  37 C37            4.6510    -1.0746     8.1996 C.ar    
  38 C38            4.7799    -2.2011     9.0008 C.ar    
  39 C39            4.1034    -3.3689     8.6751 C.ar    
  40 C40            3.2959    -3.4110     7.5579 C.ar    
  41 C41            5.6571    -3.3554    10.8846 C.3     
  42 C42            6.5847    -3.1193    12.0783 C.3     
  43 C43            6.5807    -4.3555    12.9797 C.3     
  44 C44            7.5083    -4.1193    14.1733 C.3     
  45 C45            8.9298    -3.8591    13.6708 C.3     
  46 C46            8.9338    -2.6228    12.7694 C.3     
  47 C47            8.0062    -2.8590    11.5758 C.3     
  48 O48            5.5699    -2.1607    10.1055 O.3     
  49 C49            5.6288     5.6337     0.9179 C.3     
  50 C50            6.1731     6.2951    -0.3498 C.3     
  51 C51            4.6475     6.5835     1.6077 C.3     
  52 C52            6.7872     5.3198     1.8669 C.3     
  53 H53           -1.3155     1.9180     0.1851 H       
  54 H54           -1.0881    -0.5282     0.0646 H       
  55 H55            3.1685    -0.1372     0.0810 H       
  56 H56            0.6890     3.3421     0.2605 H       
  57 H57            4.9158     1.3067     0.2137 H       
  58 H58            4.4792     1.9987    -1.3614 H       
  59 H59            2.4182    -2.1760    -1.7938 H       
  60 H60            3.2361    -3.8028    -2.8880 H       
  61 H61            4.1857    -5.7004    -4.1317 H       
  62 H62            2.4617    -8.4205    -1.3311 H       
  63 H63            1.2684    -0.3720     2.9878 H       
  64 H64            0.2965    -4.4392     3.8314 H       
  65 H65            1.7247    -4.3751     5.8335 H       
  66 H66            2.7015    -0.2902     4.9857 H       
  67 H67           -0.6571    -1.4814     1.9283 H       
  68 H68           -0.9508    -3.2156     2.2010 H       
  69 H69            3.7510    -0.2363     6.4543 H       
  70 H70            5.1787    -0.1676     8.4553 H       
  71 H71            4.2061    -4.2439     9.2998 H       
  72 H72            2.7697    -4.3196     7.3052 H       
  73 H73            6.0551    -4.1623    10.2693 H       
  74 H74            4.6648    -3.6281    11.2440 H       
  75 H75            6.2356    -2.2557    12.6444 H       
  76 H76            5.5680    -4.5409    13.3377 H       
  77 H77            6.9298    -5.2191    12.4136 H       
  78 H78            7.1592    -3.2557    14.7394 H       
  79 H79            7.5055    -5.0000    14.8155 H       
  80 H80            9.5906    -3.6908    14.5212 H       
  81 H81            9.2789    -4.7226    13.1047 H       
  82 H82            8.5847    -1.7592    13.3355 H       
  83 H83            9.9465    -2.4374    12.4114 H       
  84 H84            8.3553    -3.7226    11.0097 H       
  85 H85            8.0090    -1.9783    10.9336 H       
  86 H86            5.3478     6.5187    -1.0259 H       
  87 H87            6.6869     7.2193    -0.0856 H       
  88 H88            6.8722     5.6184    -0.8412 H       
  89 H89            4.2598     6.1123     2.5109 H       
  90 H90            5.1613     7.5077     1.8720 H       
  91 H91            3.8223     6.8071     0.9316 H       
  92 H92            7.4863     4.6431     1.3756 H       
  93 H93            7.3010     6.2440     2.1312 H       
  94 H94            6.3995     4.8486     2.7701 H       
@<TRIPOS>BOND
   1    1    2 ar
   2    1    6 ar
   3    1   53 1
   4    2    3 ar
   5    2   54 1
   6    3    4 ar
   7    3   15 1
   8    4    5 ar
   9    4   55 1
  10    5    6 ar
  11    5    7 1
  12    6   56 1
  13    7    8 1
  14    7   11 am
  15    8    9 1
  16    8   57 1
  17    8   58 1
  18    9   10 am
  19    9   12 2
  20   10   11 am
  21   10   49 1
  22   11   13 2
  23   11   14 2
  24   15   16 1
  25   15   17 1
  26   16   19 2
  27   16   59 1
  28   17   18 2
  29   17   35 1
  30   18   19 1
  31   19   20 1
  32   20   21 ar
  33   20   22 ar
  34   21   34 1
  35   21   25 ar
  36   22   23 ar
  37   22   60 1
  38   23   24 ar
  39   23   61 1
  40   24   25 ar
  41   24   33 1
  42   25   62 1
  43   26   27 ar
  44   26   28 ar
  45   26   35 1
  46   27   31 ar
  47   27   63 1
  48   28   29 ar
  49   28   64 1
  50   29   30 ar
  51   29   65 1
  52   30   31 ar
  53   30   32 1
  54   31   66 1
  55   32   36 ar
  56   32   40 ar
  57   35   67 1
  58   35   68 1
  59   36   37 ar
  60   36   69 1
  61   37   38 ar
  62   37   70 1
  63   38   39 ar
  64   38   48 1
  65   39   40 ar
  66   39   71 1
  67   40   72 1
  68   41   42 1
  69   41   48 1
  70   41   73 1
  71   41   74 1
  72   42   43 1
  73   42   47 1
  74   42   75 1
  75   43   44 1
  76   43   76 1
  77   43   77 1
  78   44   45 1
  79   44   78 1
  80   44   79 1
  81   45   46 1
  82   45   80 1
  83   45   81 1
  84   46   47 1
  85   46   82 1
  86   46   83 1
  87   47   84 1
  88   47   85 1
  89   49   50 1
  90   49   51 1
  91   49   52 1
  92   50   86 1
  93   50   87 1
  94   50   88 1
  95   51   89 1
  96   51   90 1
  97   51   91 1
  98   52   92 1
  99   52   93 1
 100   52   94 1

#	End of record

