#	Name: ASD01148777
#	Creating user name:	WinNT
#	Creation time:	15. 06. 2019 19:03

#	Modifying user name:	WinNT
#	Modification time:	15. 06. 2019 19:03

#	Program:	/corina/corina34_cracker 3.40 0067  02.08.2006

@<TRIPOS>MOLECULE
ASD01148777
  47   49    0    0    0
SMALL
NO_CHARGES


@<TRIPOS>ATOM
   1 N1             0.0251     1.3862    -0.1530 N.pl3   
   2 C2             0.0023     0.0396    -0.2414 C.2     
   3 C3             1.2774    -0.4304    -0.0050 C.2     
   4 C4             2.0989     0.7025     0.2365 C.2     
   5 C5             1.3044     1.7994     0.1392 C.2     
   6 C6             1.7050    -1.8382    -0.0030 C.2     
   7 O7             2.0958    -2.3562    -1.0308 O.2     
   8 O8             1.6634    -2.5535     1.1387 O.3     
   9 C9            -1.0783     2.2301    -0.3358 C.ar    
  10 C10           -2.1310     2.2048     0.5693 C.ar    
  11 C11           -3.2173     3.0379     0.3864 C.ar    
  12 C12           -3.2573     3.8965    -0.6968 C.ar    
  13 C13           -2.2107     3.9237    -1.6002 C.ar    
  14 C14           -1.1188     3.0974    -1.4193 C.ar    
  15 S15           -4.6450     4.9577    -0.9267 S.o2    
  16 O16           -4.6815     5.2763    -2.3111 O.2     
  17 O17           -5.7314     4.3522    -0.2396 O.2     
  18 N18           -4.3178     6.3721    -0.1299 N.am    
  19 C19           -1.2080    -0.8051    -0.5460 C.3     
  20 I20            4.1499     0.6848     0.6633 I       
  21 C21            1.7406     3.2012     0.3167 C.ar    
  22 C22            1.0873     4.0276     1.2321 C.ar    
  23 C23            1.4990     5.3342     1.3937 C.ar    
  24 C24            2.5582     5.8262     0.6499 C.ar    
  25 C25            3.2103     5.0110    -0.2598 C.ar    
  26 C26            2.8110     3.7012    -0.4262 C.ar    
  27 Cl27           3.0704     7.4718     0.8584 Cl      
  28 C28            2.1003    -3.9364     1.0664 C.3     
  29 C29            1.9826    -4.5813     2.4489 C.3     
  30 H30           -2.1005     1.5341     1.4153 H       
  31 H31           -4.0366     3.0184     1.0898 H       
  32 H32           -2.2452     4.5949    -2.4456 H       
  33 H33           -0.2995     3.1225    -2.1225 H       
  34 H34           -4.6899     7.2078    -0.4525 H       
  35 H35           -3.7540     6.3648     0.6594 H       
  36 H36           -1.2906    -0.9463    -1.6237 H       
  37 H37           -1.1060    -1.7750    -0.0592 H       
  38 H38           -2.1028    -0.3049    -0.1755 H       
  39 H39            0.2607     3.6450     1.8125 H       
  40 H40            0.9939     5.9748     2.1015 H       
  41 H41            4.0356     5.4004    -0.8374 H       
  42 H42            3.3232     3.0650    -1.1329 H       
  43 H43            1.4741    -4.4787     0.3580 H       
  44 H44            3.1383    -3.9726     0.7357 H       
  45 H45            2.3106    -5.6193     2.3946 H       
  46 H46            2.6088    -4.0389     3.1573 H       
  47 H47            0.9446    -4.5450     2.7795 H       
@<TRIPOS>BOND
   1    1    2 1
   2    1    5 1
   3    1    9 1
   4    2    3 2
   5    2   19 1
   6    3    4 1
   7    3    6 1
   8    4    5 2
   9    4   20 1
  10    5   21 1
  11    6    7 2
  12    6    8 1
  13    8   28 1
  14    9   10 ar
  15    9   14 ar
  16   10   11 ar
  17   10   30 1
  18   11   12 ar
  19   11   31 1
  20   12   13 ar
  21   12   15 1
  22   13   14 ar
  23   13   32 1
  24   14   33 1
  25   15   16 2
  26   15   17 2
  27   15   18 am
  28   18   34 1
  29   18   35 1
  30   19   36 1
  31   19   37 1
  32   19   38 1
  33   21   22 ar
  34   21   26 ar
  35   22   23 ar
  36   22   39 1
  37   23   24 ar
  38   23   40 1
  39   24   25 ar
  40   24   27 1
  41   25   26 ar
  42   25   41 1
  43   26   42 1
  44   28   29 1
  45   28   43 1
  46   28   44 1
  47   29   45 1
  48   29   46 1
  49   29   47 1

#	End of record

