#	Name: ASD00310142
#	Creating user name:	WinNT
#	Creation time:	15. 06. 2019 18:33

#	Modifying user name:	WinNT
#	Modification time:	15. 06. 2019 18:33

#	Program:	/corina/corina34_cracker 3.40 0067  02.08.2006

@<TRIPOS>MOLECULE
ASD00310142
  39   42    0    0    0
SMALL
NO_CHARGES


@<TRIPOS>ATOM
   1 N1            -0.0163     1.3500     0.0095 N.pl3   
   2 C2             0.0021    -0.0041     0.0020 C.2     
   3 C3             1.2921    -0.4483    -0.0127 C.2     
   4 C4             2.1475     0.7539    -0.0144 C.ar    
   5 C5             3.5230     0.9583    -0.0264 C.ar    
   6 C6             4.0239     2.2538    -0.0243 C.ar    
   7 C7             3.1465     3.3436    -0.0100 C.ar    
   8 C8             1.7850     3.1436     0.0019 C.ar    
   9 C9             1.2694     1.8502    -0.0001 C.ar    
  10 C10            1.7402    -1.8455    -0.0240 C.2     
  11 O11            2.9286    -2.1027    -0.0364 O.2     
  12 O12            0.8342    -2.8441    -0.0208 O.3     
  13 Cl13           3.7801     4.9599    -0.0068 Cl      
  14 C14            5.4899     2.4821    -0.0365 C.ar    
  15 C15            6.0532     3.3600    -0.9605 C.ar    
  16 C16            7.4175     3.5686    -0.9674 C.ar    
  17 C17            8.2253     2.9080    -0.0595 C.ar    
  18 C18            7.6715     2.0354     0.8599 C.ar    
  19 C19            6.3078     1.8237     0.8796 C.ar    
  20 C20            9.7144     3.1394    -0.0723 C.3     
  21 C21           10.5561     2.3807     0.9556 C.3     
  22 C22           10.6058     1.9793    -0.5199 C.3     
  23 C23           10.1522     4.5346    -0.4367 C.2     
  24 O24           11.1340     5.0138     0.0793 O.2     
  25 O25            9.4514     5.2450    -1.3345 O.3     
  26 H26           -0.8206     1.8922     0.0163 H       
  27 H27           -0.8729    -0.6372     0.0073 H       
  28 H28            4.1975     0.1150    -0.0370 H       
  29 H29            1.1155     3.9910     0.0128 H       
  30 H30            1.1773    -3.7482    -0.0286 H       
  31 H31            5.4234     3.8761    -1.6701 H       
  32 H32            7.8552     4.2485    -1.6833 H       
  33 H33            8.3069     1.5222     1.5665 H       
  34 H34            5.8760     1.1456     1.6007 H       
  35 H35           11.4267     2.8905     1.3681 H       
  36 H36           10.0328     1.7141     1.6412 H       
  37 H37           10.1152     1.0486    -0.8051 H       
  38 H38           11.5091     2.2250    -1.0782 H       
  39 H39            9.7709     6.1352    -1.5359 H       
@<TRIPOS>BOND
   1    1    2 1
   2    1    9 1
   3    1   26 1
   4    2    3 2
   5    2   27 1
   6    3    4 1
   7    3   10 1
   8    4    5 ar
   9    4    9 ar
  10    5    6 ar
  11    5   28 1
  12    6    7 ar
  13    6   14 1
  14    7    8 ar
  15    7   13 1
  16    8    9 ar
  17    8   29 1
  18   10   11 2
  19   10   12 1
  20   12   30 1
  21   14   15 ar
  22   14   19 ar
  23   15   16 ar
  24   15   31 1
  25   16   17 ar
  26   16   32 1
  27   17   18 ar
  28   17   20 1
  29   18   19 ar
  30   18   33 1
  31   19   34 1
  32   20   21 1
  33   20   22 1
  34   20   23 1
  35   21   22 1
  36   21   35 1
  37   21   36 1
  38   22   37 1
  39   22   38 1
  40   23   24 2
  41   23   25 1
  42   25   39 1

#	End of record

