#	Name: ASD08070256
#	Creating user name:	WinNT
#	Creation time:	15. 06. 2019 21:14

#	Modifying user name:	WinNT
#	Modification time:	15. 06. 2019 21:14

#	Program:	/corina/corina34_cracker 3.40 0067  02.08.2006

@<TRIPOS>MOLECULE
ASD08070256
  35   35    0    0    0
SMALL
NO_CHARGES


@<TRIPOS>ATOM
   1 C1            -0.0184     1.5068     0.0103 C.3     
   2 C2             0.0021    -0.0041     0.0020 C.2     
   3 C3             1.4716     1.9202    -0.0017 C.3     
   4 C4             2.1286     0.6776    -0.6465 C.3     
   5 C5             1.1729    -0.4562    -0.3562 C.2     
   6 C6            -1.1747    -0.8745     0.3607 C.3     
   7 C7            -0.7287     2.0371    -1.2367 C.3     
   8 C8            -0.7047     2.0236     1.2764 C.3     
   9 C9             1.6891     3.1657    -0.8632 C.3     
  10 C10            3.1472     3.6155    -0.7505 C.3     
  11 C11            3.3646     4.8611    -1.6120 C.3     
  12 C12            4.8008     5.3041    -1.5011 C.2     
  13 N13            5.2257     6.3887    -2.1789 N.am    
  14 O14            5.5742     4.6846    -0.8019 O.2     
  15 H15            1.8422     2.0774     1.0112 H       
  16 H16            2.2343     0.8192    -1.7221 H       
  17 H17            3.0994     0.4821    -0.1911 H       
  18 H18            1.4257    -1.5033    -0.4344 H       
  19 H19           -1.7589    -1.0831    -0.5356 H       
  20 H20           -0.8168    -1.8116     0.7873 H       
  21 H21           -1.7994    -0.3586     1.0897 H       
  22 H22           -1.7617     1.6893    -1.2420 H       
  23 H23           -0.7123     3.1269    -1.2284 H       
  24 H24           -0.2182     1.6728    -2.1282 H       
  25 H25           -0.1773     1.6498     2.1540 H       
  26 H26           -0.6883     3.1134     1.2795 H       
  27 H27           -1.7375     1.6757     1.2976 H       
  28 H28            1.4600     2.9328    -1.9031 H       
  29 H29            1.0344     3.9656    -0.5173 H       
  30 H30            3.3762     3.8484     0.2893 H       
  31 H31            3.8019     2.8156    -1.0965 H       
  32 H32            3.1356     4.6281    -2.6519 H       
  33 H33            2.7099     5.6609    -1.2661 H       
  34 H34            4.6071     6.8842    -2.7382 H       
  35 H35            6.1501     6.6739    -2.1075 H       
@<TRIPOS>BOND
   1    1    2 1
   2    1    3 1
   3    1    7 1
   4    1    8 1
   5    2    6 1
   6    2    5 2
   7    3    4 1
   8    3    9 1
   9    3   15 1
  10    4    5 1
  11    4   16 1
  12    4   17 1
  13    5   18 1
  14    6   19 1
  15    6   20 1
  16    6   21 1
  17    7   22 1
  18    7   23 1
  19    7   24 1
  20    8   25 1
  21    8   26 1
  22    8   27 1
  23    9   10 1
  24    9   28 1
  25    9   29 1
  26   10   11 1
  27   10   30 1
  28   10   31 1
  29   11   12 1
  30   11   32 1
  31   11   33 1
  32   12   13 am
  33   12   14 2
  34   13   34 1
  35   13   35 1

#	End of record

