#	Name: ASD00171040
#	Creating user name:	WinNT
#	Creation time:	15. 06. 2019 18:32

#	Modifying user name:	WinNT
#	Modification time:	15. 06. 2019 18:32

#	Program:	/corina/corina34_cracker 3.40 0067  02.08.2006

@<TRIPOS>MOLECULE
ASD00171040
  59   63    0    0    0
SMALL
NO_CHARGES


@<TRIPOS>ATOM
   1 C1            -0.0137     1.2151    -0.0100 C.2     
   2 O2             0.4554     0.7809     1.0265 O.2     
   3 C3             0.7013     1.0105    -1.2881 C.ar    
   4 C4             1.9653     0.4178    -1.2969 C.ar    
   5 C5             2.6270     0.2291    -2.4919 C.ar    
   6 C6             2.0400     0.6264    -3.6820 C.ar    
   7 C7             0.7864     1.2154    -3.6795 C.ar    
   8 C8             0.1125     1.4040    -2.4912 C.ar    
   9 Cl9            2.8792     0.3856    -5.1825 Cl      
  10 C10           -1.3902     3.3007     0.1260 C.2     
  11 C11           -1.2875     1.9339     0.0085 C.2     
  12 C12           -2.5772     1.2842    -0.0953 C.2     
  13 C13           -3.5931     2.1322    -0.0566 C.2     
  14 S14           -3.0247     3.7836     0.1102 S.3     
  15 C15           -2.7461    -0.2069    -0.2344 C.3     
  16 N16           -2.6105    -0.8401     1.0842 N.3     
  17 C17           -3.0010    -2.2558     1.0312 C.3     
  18 C18           -2.7705    -2.8975     2.4014 C.3     
  19 N19           -3.5525    -2.1760     3.4151 N.3     
  20 C20           -3.1620    -0.7603     3.4681 C.3     
  21 C21           -3.3925    -0.1186     2.0979 C.3     
  22 C22           -3.4238    -2.7772     4.6670 C.ar    
  23 C23           -4.0891    -2.2435     5.7652 C.ar    
  24 C24           -3.9636    -2.8362     7.0030 C.ar    
  25 C25           -3.1687    -3.9721     7.1537 C.ar    
  26 C26           -2.5023    -4.5056     6.0509 C.ar    
  27 C27           -2.6348    -3.9128     4.8139 C.ar    
  28 N28           -0.3180     4.1614     0.2460 N.pl3   
  29 C29           -3.0318    -4.6111     8.4843 C.ar    
  30 N30           -3.6683    -4.0979     9.5294 N.ar    
  31 C31           -3.5731    -4.6362    10.7286 C.ar    
  32 C32           -2.8011    -5.7627    10.9417 C.ar    
  33 C33           -2.1182    -6.3320     9.8755 C.ar    
  34 C34           -2.2401    -5.7496     8.6264 C.ar    
  35 H35            2.4240     0.1079    -0.3696 H       
  36 H36            3.6050    -0.2290    -2.4999 H       
  37 H37            0.3340     1.5238    -4.6104 H       
  38 H38           -0.8668     1.8593    -2.4909 H       
  39 H39           -4.6325     1.8458    -0.1196 H       
  40 H40           -3.7334    -0.4242    -0.6420 H       
  41 H41           -1.9817    -0.5981    -0.9057 H       
  42 H42           -4.0556    -2.3325     0.7665 H       
  43 H43           -2.3995    -2.7712     0.2825 H       
  44 H44           -3.0867    -3.9402     2.3725 H       
  45 H45           -1.7115    -2.8451     2.6540 H       
  46 H46           -3.7635    -0.2449     4.2168 H       
  47 H47           -2.1074    -0.6836     3.7328 H       
  48 H48           -3.0763     0.9241     2.1268 H       
  49 H49           -4.4515    -0.1710     1.8453 H       
  50 H50           -4.7044    -1.3636     5.6481 H       
  51 H51           -4.4803    -2.4212     7.8558 H       
  52 H52           -1.8861    -5.3852     6.1655 H       
  53 H53           -2.1225    -4.3282     3.9587 H       
  54 H54            0.5811     3.8073     0.3308 H       
  55 H55           -0.4635     5.1204     0.2456 H       
  56 H56           -4.1052    -4.1908    11.5561 H       
  57 H57           -2.7295    -6.1958    11.9284 H       
  58 H58           -1.5085    -7.2121    10.0172 H       
  59 H59           -1.7226    -6.1665     7.7750 H       
@<TRIPOS>BOND
   1    1    2 2
   2    1    3 1
   3    1   11 1
   4    3    4 ar
   5    3    8 ar
   6    4    5 ar
   7    4   35 1
   8    5    6 ar
   9    5   36 1
  10    6    7 ar
  11    6    9 1
  12    7    8 ar
  13    7   37 1
  14    8   38 1
  15   10   11 2
  16   10   14 1
  17   10   28 1
  18   11   12 1
  19   12   13 2
  20   12   15 1
  21   13   14 1
  22   13   39 1
  23   15   16 1
  24   15   40 1
  25   15   41 1
  26   16   17 1
  27   16   21 1
  28   17   18 1
  29   17   42 1
  30   17   43 1
  31   18   19 1
  32   18   44 1
  33   18   45 1
  34   19   20 1
  35   19   22 1
  36   20   21 1
  37   20   46 1
  38   20   47 1
  39   21   48 1
  40   21   49 1
  41   22   23 ar
  42   22   27 ar
  43   23   24 ar
  44   23   50 1
  45   24   25 ar
  46   24   51 1
  47   25   26 ar
  48   25   29 1
  49   26   27 ar
  50   26   52 1
  51   27   53 1
  52   28   54 1
  53   28   55 1
  54   29   30 ar
  55   29   34 ar
  56   30   31 ar
  57   31   32 ar
  58   31   56 1
  59   32   33 ar
  60   32   57 1
  61   33   34 ar
  62   33   58 1
  63   34   59 1

#	End of record

