#	Name: ASD05062031
#	Creating user name:	WinNT
#	Creation time:	15. 06. 2019 20:56

#	Modifying user name:	WinNT
#	Modification time:	15. 06. 2019 20:56

#	Program:	/corina/corina34_cracker 3.40 0067  02.08.2006

@<TRIPOS>MOLECULE
ASD05062031
  40   42    0    0    0
SMALL
NO_CHARGES


@<TRIPOS>ATOM
   1 C1            -0.0168     1.3892     0.0097 C.ar    
   2 C2             0.0021    -0.0041     0.0020 C.ar    
   3 C3            -1.1547    -0.7215     0.0087 C.ar    
   4 C4            -2.3909    -0.0522     0.0241 C.ar    
   5 C5            -2.4062     1.3637     0.0324 C.ar    
   6 C6            -1.1975     2.0714     0.0303 C.ar    
   7 C7            -3.3137     5.6109     1.1521 C.ar    
   8 C8            -3.2437     4.2332     1.1497 C.ar    
   9 C9            -3.7273     3.5147     0.0561 C.ar    
  10 C10           -4.2789     4.1947    -1.0298 C.ar    
  11 C11           -4.3434     5.5725    -1.0170 C.ar    
  12 C12           -3.8619     6.2807     0.0711 C.ar    
  13 N13           -3.5420    -0.7329     0.0304 N.ar    
  14 C14           -4.7039    -0.1248     0.0444 C.ar    
  15 C15           -4.8074     1.2613     0.0529 C.ar    
  16 C16           -3.6549     2.0357     0.0479 C.ar    
  17 C17           -5.9631    -0.9527     0.0508 C.3     
  18 Br18           1.6145     2.3456    -0.0008 Br      
  19 C19           -6.1627     1.9199     0.0679 C.3     
  20 C20           -6.7868     1.8162    -1.2999 C.2     
  21 O21           -6.9995     1.2659     1.0241 O.3     
  22 C22           -7.9787     2.1195     1.6196 C.3     
  23 O23           -7.7924     1.1651    -1.4574 O.2     
  24 O24           -6.2255     2.4472    -2.3433 O.3     
  25 Cl25          -3.9462     8.0146     0.0805 Cl      
  26 H26            0.9493    -0.5228    -0.0098 H       
  27 H27           -1.1230    -1.8010     0.0019 H       
  28 H28           -1.2007     3.1513     0.0369 H       
  29 H29           -2.9436     6.1679     2.0001 H       
  30 H30           -2.8156     3.7118     1.9931 H       
  31 H31           -4.6545     3.6434    -1.8792 H       
  32 H32           -4.7700     6.1000    -1.8574 H       
  33 H33           -6.2575    -1.1582     1.0800 H       
  34 H34           -6.7602    -0.4056    -0.4527 H       
  35 H35           -5.7824    -1.8929    -0.4701 H       
  36 H36           -6.0534     2.9700     0.3387 H       
  37 H37           -8.5728     1.5485     2.3330 H       
  38 H38           -7.4799     2.9395     2.1362 H       
  39 H39           -8.6302     2.5217     0.8438 H       
  40 H40           -6.6620     2.3513    -3.2008 H       
@<TRIPOS>BOND
   1    1    2 ar
   2    1   18 1
   3    1    6 ar
   4    2    3 ar
   5    2   26 1
   6    3    4 ar
   7    3   27 1
   8    4    5 ar
   9    4   13 ar
  10    5    6 ar
  11    5   16 ar
  12    6   28 1
  13    7    8 ar
  14    7   12 ar
  15    7   29 1
  16    8    9 ar
  17    8   30 1
  18    9   10 ar
  19    9   16 1
  20   10   11 ar
  21   10   31 1
  22   11   12 ar
  23   11   32 1
  24   12   25 1
  25   13   14 ar
  26   14   15 ar
  27   14   17 1
  28   15   16 ar
  29   15   19 1
  30   17   33 1
  31   17   34 1
  32   17   35 1
  33   19   20 1
  34   19   21 1
  35   19   36 1
  36   20   23 2
  37   20   24 1
  38   21   22 1
  39   22   37 1
  40   22   38 1
  41   22   39 1
  42   24   40 1

#	End of record

