#	Name: ASD01918009
#	Creating user name:	WinNT
#	Creation time:	15. 06. 2019 20:10

#	Modifying user name:	WinNT
#	Modification time:	15. 06. 2019 20:10

#	Program:	/corina/corina34_cracker 3.40 0067  02.08.2006

@<TRIPOS>MOLECULE
ASD01918009
  41   44    0    0    0
SMALL
NO_CHARGES


@<TRIPOS>ATOM
   1 N1             4.8184    -0.4118    -2.1431 N.ar    
   2 C2             5.2852     0.2862    -3.1596 C.ar    
   3 C3             5.1736     1.6653    -3.1849 C.ar    
   4 C4             4.5615     2.3139    -2.1235 C.ar    
   5 C5             4.0806     1.5454    -1.0679 C.ar    
   6 C6             4.2300     0.1669    -1.1150 C.ar    
   7 O7             3.4733     2.1368    -0.0058 O.3     
   8 C8             3.4546     3.4960     0.0438 C.2     
   9 N9             2.2051     5.5107    -0.0217 N.pl3   
  10 C10            2.2729     4.1508    -0.0653 C.2     
  11 C11            4.6573     4.1965     0.2126 C.2     
  12 C12            4.6349     5.5844     0.2628 C.2     
  13 C13            3.3434     6.2622     0.1360 C.2     
  14 C14            5.8775     6.3538     0.4394 C.2     
  15 N15            5.8356     7.7001     0.4857 N.am    
  16 C16            6.9957     8.4250     0.7584 C.ar    
  17 O17            6.9420     5.7745     0.5435 O.2     
  18 C18            1.1811     6.4047    -0.1044 C.2     
  19 N19            1.6969     7.6022    -0.0074 N.2     
  20 N20            2.9733     7.5273     0.1405 N.2     
  21 Cl21           5.7931     2.5723    -4.5293 Cl      
  22 N22            8.1534     7.7923     0.8632 N.ar    
  23 C23            6.9241     9.8047     0.9115 C.ar    
  24 C24            8.0810    10.5140     1.1818 C.ar    
  25 C25            9.2787     9.8128     1.2904 C.ar    
  26 C26            9.2749     8.4375     1.1200 C.ar    
  27 O27           10.4393    10.4702     1.5551 O.3     
  28 C28           11.6255     9.6792     1.6512 C.3     
  29 H29            5.7613    -0.2251    -3.9832 H       
  30 H30            4.4606     3.3892    -2.1160 H       
  31 H31            3.8603    -0.4387    -0.3008 H       
  32 H32            1.3638     3.5811    -0.1900 H       
  33 H33            5.5917     3.6624     0.3030 H       
  34 H34            4.9987     8.1650     0.3294 H       
  35 H35            0.1351     6.1680    -0.2322 H       
  36 H36            5.9775    10.3166     0.8202 H       
  37 H37            8.0555    11.5866     1.3053 H       
  38 H38           10.2010     7.8874     1.1988 H       
  39 H39           11.5122     8.9503     2.4537 H       
  40 H40           11.7924     9.1585     0.7083 H       
  41 H41           12.4769    10.3255     1.8649 H       
@<TRIPOS>BOND
   1    1    2 ar
   2    1    6 ar
   3    2    3 ar
   4    2   29 1
   5    3    4 ar
   6    3   21 1
   7    4    5 ar
   8    4   30 1
   9    5    6 ar
  10    5    7 1
  11    6   31 1
  12    7    8 1
  13    8   11 1
  14    8   10 2
  15    9   10 1
  16    9   18 1
  17    9   13 1
  18   10   32 1
  19   11   12 2
  20   11   33 1
  21   12   13 1
  22   12   14 1
  23   13   20 2
  24   14   15 am
  25   14   17 2
  26   15   16 1
  27   15   34 1
  28   16   23 ar
  29   16   22 ar
  30   18   19 2
  31   18   35 1
  32   19   20 1
  33   22   26 ar
  34   23   24 ar
  35   23   36 1
  36   24   25 ar
  37   24   37 1
  38   25   26 ar
  39   25   27 1
  40   26   38 1
  41   27   28 1
  42   28   39 1
  43   28   40 1
  44   28   41 1

#	End of record

