#	Name: ASD08150920
#	Creating user name:	WinNT
#	Creation time:	15. 06. 2019 21:16

#	Modifying user name:	WinNT
#	Modification time:	15. 06. 2019 21:16

#	Program:	/corina/corina34_cracker 3.40 0067  02.08.2006

@<TRIPOS>MOLECULE
ASD08150920
  47   51    0    0    0
SMALL
NO_CHARGES


@<TRIPOS>ATOM
   1 N1            -0.2767     1.4117     0.0463 N.2     
   2 C2            -0.6821     0.2779     0.5400 C.2     
   3 N3            -0.3521     0.2003     1.8604 N.pl3   
   4 C4             0.2966     1.3632     2.1912 C.ar    
   5 N5             0.8396     1.8517     3.3014 N.ar    
   6 C6             1.4088     3.0387     3.3038 C.ar    
   7 N7             1.4713     3.7970     2.2247 N.ar    
   8 C8             0.9556     3.3925     1.0684 C.ar    
   9 C9             0.3375     2.1318     1.0155 C.ar    
  10 N10            1.0255     4.1946    -0.0572 N.pl3   
  11 C11            1.6735     5.5064     0.0171 C.3     
  12 C12            2.1642     5.9124    -1.3740 C.3     
  13 C13            1.1438     7.6986     1.0954 C.ar    
  14 C14            0.6850     6.5272     0.5189 C.ar    
  15 C15           -0.6777     6.2824     0.3973 C.ar    
  16 C16           -1.5984     7.1852     0.8405 C.ar    
  17 C17           -1.1756     8.3887     1.4327 C.ar    
  18 C18           -2.1037     9.3367     1.8970 C.ar    
  19 C19           -1.6602    10.4915     2.4649 C.ar    
  20 C20           -0.2971    10.7497     2.5933 C.ar    
  21 C21            0.6298     9.8536     2.1539 C.ar    
  22 C22            0.2096     8.6525     1.5643 C.ar    
  23 C23            2.5980     7.9486     1.2260 C.ar    
  24 C24            3.1934     8.9974     0.5257 C.ar    
  25 C25            4.5505     9.2254     0.6518 C.ar    
  26 C26            5.3180     8.4138     1.4721 C.ar    
  27 C27            4.7312     7.3726     2.1676 C.ar    
  28 C28            3.3756     7.1397     2.0540 C.ar    
  29 F29            5.1299    10.2404    -0.0258 F       
  30 Cl30          -3.2933     6.8491     0.6731 Cl      
  31 H31           -1.2035    -0.4883    -0.0144 H       
  32 H32           -0.5414    -0.5409     2.4567 H       
  33 H33            1.8407     3.4061     4.2230 H       
  34 H34            0.6454     3.8882    -0.8954 H       
  35 H35            2.5210     5.4547     0.7006 H       
  36 H36            2.6463     6.8884    -1.3187 H       
  37 H37            2.8791     5.1740    -1.7370 H       
  38 H38            1.3166     5.9640    -2.0575 H       
  39 H39           -1.0131     5.3614    -0.0563 H       
  40 H40           -3.1633     9.1499     1.8033 H       
  41 H41           -2.3753    11.2184     2.8209 H       
  42 H42            0.0292    11.6737     3.0473 H       
  43 H43            1.6833    10.0668     2.2594 H       
  44 H44            2.5954     9.6297    -0.1138 H       
  45 H45            6.3784     8.5949     1.5682 H       
  46 H46            5.3344     6.7431     2.8052 H       
  47 H47            2.9184     6.3291     2.6021 H       
@<TRIPOS>BOND
   1    1    2 2
   2    1    9 1
   3    2    3 1
   4    2   31 1
   5    3    4 1
   6    3   32 1
   7    4    5 ar
   8    4    9 ar
   9    5    6 ar
  10    6    7 ar
  11    6   33 1
  12    7    8 ar
  13    8    9 ar
  14    8   10 1
  15   10   11 1
  16   10   34 1
  17   11   12 1
  18   11   14 1
  19   11   35 1
  20   12   36 1
  21   12   37 1
  22   12   38 1
  23   13   14 ar
  24   13   22 ar
  25   13   23 1
  26   14   15 ar
  27   15   16 ar
  28   15   39 1
  29   16   17 ar
  30   16   30 1
  31   17   18 ar
  32   17   22 ar
  33   18   19 ar
  34   18   40 1
  35   19   20 ar
  36   19   41 1
  37   20   21 ar
  38   20   42 1
  39   21   22 ar
  40   21   43 1
  41   23   24 ar
  42   23   28 ar
  43   24   25 ar
  44   24   44 1
  45   25   26 ar
  46   25   29 1
  47   26   27 ar
  48   26   45 1
  49   27   28 ar
  50   27   46 1
  51   28   47 1

#	End of record

