#	Name: ASD07931048
#	Creating user name:	WinNT
#	Creation time:	15. 06. 2019 21:13

#	Modifying user name:	WinNT
#	Modification time:	15. 06. 2019 21:13

#	Program:	/corina/corina34_cracker 3.40 0067  02.08.2006

@<TRIPOS>MOLECULE
ASD07931048
  44   46    0    0    0
SMALL
NO_CHARGES


@<TRIPOS>ATOM
   1 N1            -0.0161     1.3349     0.0094 N.pl3   
   2 C2             0.0021    -0.0041     0.0020 C.2     
   3 C3             1.1800    -0.7235    -0.0127 C.2     
   4 C4             2.4584     0.0058    -0.0210 C.2     
   5 C5             2.3933     1.4792    -0.0130 C.ar    
   6 C6             3.5540     2.2528    -0.0195 C.ar    
   7 C7             3.4562     3.6265    -0.0112 C.ar    
   8 C8             2.2112     4.2396     0.0036 C.ar    
   9 C9             1.0568     3.4882     0.0101 C.ar    
  10 C10            1.1317     2.0975     0.0025 C.ar    
  11 C11            1.1580    -2.1931    -0.0194 C.2     
  12 O12            0.0963    -2.7852    -0.0120 O.2     
  13 O13            2.3151    -2.8845    -0.0338 O.3     
  14 O14            3.5253    -0.5827    -0.0336 O.2     
  15 C15            2.2175    -4.3332    -0.0397 C.3     
  16 C16            3.6012    -4.9299    -0.0558 C.ar    
  17 C17            4.2464    -5.2088     1.1348 C.ar    
  18 C18            5.5149    -5.7558     1.1227 C.ar    
  19 C19            6.1413    -6.0253    -0.0854 C.ar    
  20 C20            5.4918    -5.7445    -1.2787 C.ar    
  21 C21            4.2211    -5.2027    -1.2612 C.ar    
  22 O22            7.3894    -6.5630    -0.0999 O.3     
  23 C23            7.9728    -6.8139    -1.3800 C.3     
  24 C24           -1.3118     2.0184     0.0191 C.3     
  25 C25           -1.7562     2.2485     1.4650 C.3     
  26 H26           -0.9362    -0.5389     0.0081 H       
  27 H27            4.5237     1.7774    -0.0306 H       
  28 H28            4.3523     4.2293    -0.0158 H       
  29 H29            2.1468     5.3177     0.0103 H       
  30 H30            0.0940     3.9773     0.0213 H       
  31 H31            1.6889    -4.6654     0.8538 H       
  32 H32            1.6718    -4.6569    -0.9261 H       
  33 H33            3.7584    -4.9986     2.0751 H       
  34 H34            6.0186    -5.9732     2.0530 H       
  35 H35            5.9774    -5.9533    -2.2205 H       
  36 H36            3.7132    -4.9884    -2.1899 H       
  37 H37            8.9666    -7.2421    -1.2488 H       
  38 H38            7.3463    -7.5128    -1.9342 H       
  39 H39            8.0506    -5.8781    -1.9336 H       
  40 H40           -1.2203     2.9779    -0.4899 H       
  41 H41           -2.0508     1.4036    -0.4946 H       
  42 H42           -2.7202     2.7571     1.4723 H       
  43 H43           -1.8477     1.2890     1.9741 H       
  44 H44           -1.0172     2.8634     1.9787 H       
@<TRIPOS>BOND
   1    1    2 1
   2    1   10 1
   3    1   24 1
   4    2    3 2
   5    2   26 1
   6    3    4 1
   7    3   11 1
   8    4    5 1
   9    4   14 2
  10    5    6 ar
  11    5   10 ar
  12    6    7 ar
  13    6   27 1
  14    7    8 ar
  15    7   28 1
  16    8    9 ar
  17    8   29 1
  18    9   10 ar
  19    9   30 1
  20   11   12 2
  21   11   13 1
  22   13   15 1
  23   15   16 1
  24   15   31 1
  25   15   32 1
  26   16   17 ar
  27   16   21 ar
  28   17   18 ar
  29   17   33 1
  30   18   19 ar
  31   18   34 1
  32   19   20 ar
  33   19   22 1
  34   20   21 ar
  35   20   35 1
  36   21   36 1
  37   22   23 1
  38   23   37 1
  39   23   38 1
  40   23   39 1
  41   24   25 1
  42   24   40 1
  43   24   41 1
  44   25   42 1
  45   25   43 1
  46   25   44 1

#	End of record

