#	Name: ASD02198388
#	Creating user name:	WinNT
#	Creation time:	15. 06. 2019 20:19

#	Modifying user name:	WinNT
#	Modification time:	15. 06. 2019 20:19

#	Program:	/corina/corina34_cracker 3.40 0067  02.08.2006

@<TRIPOS>MOLECULE
ASD02198388
  45   48    0    0    0
SMALL
NO_CHARGES


@<TRIPOS>ATOM
   1 C1            -0.2107     1.0831    -0.3403 C.2     
   2 C2            -0.1182    -0.2634    -0.3572 C.2     
   3 S3             1.3998     1.7792    -0.2155 S.3     
   4 C4             2.1242     0.1768    -0.1927 C.2     
   5 C5             1.1664    -0.7535    -0.2759 C.2     
   6 S6             3.8511    -0.1535    -0.0782 S.o2    
   7 N7             4.4415    -0.2175    -1.6241 N.am    
   8 C8             4.3250     0.8911    -2.4612 C.ar    
   9 C9             4.0851     0.7152    -3.8423 C.ar    
  10 C10            3.9695     1.8553    -4.6749 C.ar    
  11 C11            4.0944     3.1389    -4.1214 C.ar    
  12 C12            4.3285     3.2818    -2.7722 C.ar    
  13 C13            4.4374     2.1621    -1.9448 C.ar    
  14 N14            3.9674    -0.5070    -4.3682 N.ar    
  15 C15            3.7452    -0.6805    -5.6483 C.ar    
  16 C16            3.6209     0.3969    -6.5231 C.ar    
  17 C17            3.7304     1.6736    -6.0509 C.ar    
  18 O18            4.4388     0.9891     0.5287 O.2     
  19 O19            3.9743    -1.4657     0.4530 O.2     
  20 O20            4.4490     4.5258    -2.2389 O.3     
  21 C21            4.3217     5.6312    -3.1356 C.3     
  22 C22           -1.4673     1.8519    -0.4203 C.ar    
  23 C23           -1.4477     3.2528    -0.3941 C.ar    
  24 N24           -2.6396     1.2250    -0.5244 N.ar    
  25 C25           -3.7677     1.9145    -0.5962 C.ar    
  26 N26           -3.7771     3.2400    -0.5680 N.ar    
  27 C27           -2.6499     3.9292    -0.4717 C.ar    
  28 S28           -5.2959     1.0482    -0.7335 S.3     
  29 C29           -6.4452     2.4453    -0.7913 C.3     
  30 H30           -0.9834    -0.9058    -0.4285 H       
  31 H31            1.3845    -1.8113    -0.2787 H       
  32 H32            4.8684    -1.0264    -1.9471 H       
  33 H33            4.0076     4.0116    -4.7517 H       
  34 H34            4.6208     2.2948    -0.8888 H       
  35 H35            3.6565    -1.6849    -6.0352 H       
  36 H36            3.4380     0.2225    -7.5731 H       
  37 H37            3.6369     2.5205    -6.7145 H       
  38 H38            5.0919     5.5661    -3.9042 H       
  39 H39            3.3379     5.6074    -3.6042 H       
  40 H40            4.4383     6.5631    -2.5824 H       
  41 H41           -0.5148     3.7911    -0.3147 H       
  42 H42           -2.6708     5.0087    -0.4496 H       
  43 H43           -7.4658     2.0729    -0.8785 H       
  44 H44           -6.3494     3.0326     0.1220 H       
  45 H45           -6.2123     3.0720    -1.6523 H       
@<TRIPOS>BOND
   1    1    2 2
   2    1    3 1
   3    1   22 1
   4    2    5 1
   5    2   30 1
   6    3    4 1
   7    4    5 2
   8    4    6 1
   9    5   31 1
  10    6    7 am
  11    6   18 2
  12    6   19 2
  13    7    8 1
  14    7   32 1
  15    8    9 ar
  16    8   13 ar
  17    9   10 ar
  18    9   14 ar
  19   10   11 ar
  20   10   17 ar
  21   11   12 ar
  22   11   33 1
  23   12   13 ar
  24   12   20 1
  25   13   34 1
  26   14   15 ar
  27   15   16 ar
  28   15   35 1
  29   16   17 ar
  30   16   36 1
  31   17   37 1
  32   20   21 1
  33   21   38 1
  34   21   39 1
  35   21   40 1
  36   22   23 ar
  37   22   24 ar
  38   23   27 ar
  39   23   41 1
  40   24   25 ar
  41   25   26 ar
  42   25   28 1
  43   26   27 ar
  44   27   42 1
  45   28   29 1
  46   29   43 1
  47   29   44 1
  48   29   45 1

#	End of record

