#	Name: ASD01190109
#	Creating user name:	WinNT
#	Creation time:	15. 06. 2019 19:07

#	Modifying user name:	WinNT
#	Modification time:	15. 06. 2019 19:07

#	Program:	/corina/corina34_cracker 3.40 0067  02.08.2006

@<TRIPOS>MOLECULE
ASD01190109
  44   48    0    0    0
SMALL
NO_CHARGES


@<TRIPOS>ATOM
   1 C1            -0.0187     1.5258     0.0104 C.3     
   2 C2            -0.7251     2.5701     0.8772 C.3     
   3 N3             5.2418     3.2956    -0.8861 N.pl3   
   4 N4             5.6359     3.4829     0.4428 N.2     
   5 C5             4.6572     3.1783     1.2472 C.2     
   6 C6             3.5229     2.7569     0.4311 C.ar    
   7 C7             2.2246     2.3224     0.7205 C.ar    
   8 C8             1.3799     1.9934    -0.2999 C.ar    
   9 C9             1.7975     2.0851    -1.6220 C.ar    
  10 C10            3.0603     2.5063    -1.9294 C.ar    
  11 C11            3.9440     2.8491    -0.9097 C.ar    
  12 C12            6.0411     3.5316    -2.0122 C.ar    
  13 C13            6.9527     4.5793    -2.0107 C.ar    
  14 C14            7.7396     4.8102    -3.1217 C.ar    
  15 C15            7.6202     3.9979    -4.2370 C.ar    
  16 C16            6.7118     2.9526    -4.2406 C.ar    
  17 C17            5.9270     2.7148    -3.1294 C.ar    
  18 F18            8.3907     4.2258    -5.3231 F       
  19 F19           -0.7821     3.7864     0.1884 F       
  20 F20           -2.0235     2.1360     1.1652 F       
  21 F21           -0.0156     2.7428     2.0705 F       
  22 C22            1.5535     0.2655     4.1554 C.ar    
  23 N23            1.1536     0.7775     3.0117 N.ar    
  24 C24            0.5884     0.0001     2.0885 C.ar    
  25 C25            0.4262    -1.3753     2.3556 C.ar    
  26 C26            0.8674    -1.8620     3.5814 C.ar    
  27 N27            1.4179    -1.0174     4.4403 N.ar    
  28 N28           -0.1745    -1.9362     1.2530 N.pl3   
  29 C29            0.0428     0.2155     0.7524 C.2     
  30 C30           -0.3960    -0.9768     0.3082 C.2     
  31 Cl31           0.6994    -3.5436     3.9781 Cl      
  32 O32           -0.7434     1.3494    -1.2085 O.3     
  33 H33            4.6811     3.2283     2.3258 H       
  34 H34            1.8928     2.2477     1.7455 H       
  35 H35            1.1155     1.8198    -2.4163 H       
  36 H36            3.3724     2.5727    -2.9612 H       
  37 H37            7.0458     5.2132    -1.1413 H       
  38 H38            8.4484     5.6251    -3.1211 H       
  39 H39            6.6200     2.3205    -5.1114 H       
  40 H40            5.2221     1.8965    -3.1308 H       
  41 H41            2.0127     0.9157     4.8853 H       
  42 H42           -0.4058    -2.8737     1.1606 H       
  43 H43           -0.8558    -1.1488    -0.6538 H       
  44 H44           -0.3518     0.6998    -1.8084 H       
@<TRIPOS>BOND
   1    1    2 1
   2    1    8 1
   3    1   29 1
   4    1   32 1
   5    2   19 1
   6    2   20 1
   7    2   21 1
   8    3    4 1
   9    3   11 1
  10    3   12 1
  11    4    5 2
  12    5    6 1
  13    5   33 1
  14    6    7 ar
  15    6   11 ar
  16    7    8 ar
  17    7   34 1
  18    8    9 ar
  19    9   10 ar
  20    9   35 1
  21   10   11 ar
  22   10   36 1
  23   12   13 ar
  24   12   17 ar
  25   13   14 ar
  26   13   37 1
  27   14   15 ar
  28   14   38 1
  29   15   16 ar
  30   15   18 1
  31   16   17 ar
  32   16   39 1
  33   17   40 1
  34   22   23 ar
  35   22   27 ar
  36   22   41 1
  37   23   24 ar
  38   24   25 ar
  39   24   29 1
  40   25   26 ar
  41   25   28 1
  42   26   27 ar
  43   26   31 1
  44   28   30 1
  45   28   42 1
  46   29   30 2
  47   30   43 1
  48   32   44 1

#	End of record

