#	Name: ASD01901263
#	Creating user name:	WinNT
#	Creation time:	15. 06. 2019 19:53

#	Modifying user name:	WinNT
#	Modification time:	15. 06. 2019 19:53

#	Program:	/corina/corina34_cracker 3.40 0067  02.08.2006

@<TRIPOS>MOLECULE
ASD01901263
  48   51    0    0    0
SMALL
NO_CHARGES


@<TRIPOS>ATOM
   1 C1             0.7946     1.2607    -0.0366 C.ar    
   2 N2             0.9153    -0.0502    -0.0437 N.ar    
   3 C3             2.0943    -0.6420    -0.0144 C.ar    
   4 C4             3.2637     0.0957     0.0254 C.ar    
   5 C5             3.1934     1.4775     0.0345 C.ar    
   6 C6             1.9277     2.0779     0.0027 C.ar    
   7 C7             1.7975     3.5039     0.0104 C.1     
   8 C8             1.6907     4.6731     0.0168 C.1     
   9 C9             1.5605     6.0991     0.0245 C.ar    
  10 C10            0.1708     8.0607     0.0064 C.ar    
  11 C11            0.2927     6.6869    -0.0016 C.ar    
  12 C12            2.7012     6.9067     0.0639 C.ar    
  13 C13            2.5714     8.2801     0.0717 C.ar    
  14 C14            1.3070     8.8613     0.0404 C.ar    
  15 N15            1.1788    10.2565     0.0475 N.am    
  16 N16            1.0208    12.2566    -1.1927 N.am    
  17 C17            1.1419    10.9200    -1.1187 C.2     
  18 C18            1.0891    10.9074     1.2276 C.2     
  19 C19            0.9545    12.3746     1.2072 C.ar    
  20 C20            0.9263    13.0228    -0.0400 C.ar    
  21 C21            0.8012    14.4026    -0.0930 C.ar    
  22 C22            0.8561    13.1177     2.3814 C.ar    
  23 C23            0.7312    14.4892     2.3087 C.ar    
  24 C24            0.7105    15.1280     1.0782 C.ar    
  25 C25            0.9882    12.9107    -2.5032 C.3     
  26 O26            1.2219    10.2849    -2.1523 O.2     
  27 O27            1.1183    10.2983     2.2797 O.2     
  28 Cl28          -1.4036     8.7913    -0.0259 Cl      
  29 F29            3.6727     9.0617     0.1103 F       
  30 C30            2.2863    12.6106    -3.2553 C.3     
  31 C31           -0.2011    12.3821    -3.3075 C.3     
  32 H32           -0.1878     1.7084    -0.0659 H       
  33 H33            2.1471    -1.7207    -0.0212 H       
  34 H34            4.2220    -0.4018     0.0494 H       
  35 H35            4.0907     2.0777     0.0656 H       
  36 H36           -0.5905     6.0660    -0.0283 H       
  37 H37            3.6823     6.4561     0.0887 H       
  38 H38            0.7752    14.9081    -1.0470 H       
  39 H39            0.8771    12.6235     3.3414 H       
  40 H40            0.6545    15.0699     3.2161 H       
  41 H41            0.6131    16.2027     1.0353 H       
  42 H42            0.8865    13.9876    -2.3693 H       
  43 H43            2.3880    11.5336    -3.3892 H       
  44 H44            2.2621    13.0972    -4.2304 H       
  45 H45            3.1336    12.9871    -2.6823 H       
  46 H46           -1.1259    12.5959    -2.7717 H       
  47 H47           -0.2254    12.8688    -4.2826 H       
  48 H48           -0.0994    11.3052    -3.4414 H       
@<TRIPOS>BOND
   1    1    2 ar
   2    1    6 ar
   3    1   32 1
   4    2    3 ar
   5    3    4 ar
   6    3   33 1
   7    4    5 ar
   8    4   34 1
   9    5    6 ar
  10    5   35 1
  11    6    7 1
  12    7    8 3
  13    8    9 1
  14    9   12 ar
  15    9   11 ar
  16   10   11 ar
  17   10   14 ar
  18   10   28 1
  19   11   36 1
  20   12   13 ar
  21   12   37 1
  22   13   14 ar
  23   13   29 1
  24   14   15 1
  25   15   18 am
  26   15   17 am
  27   16   17 am
  28   16   20 1
  29   16   25 1
  30   17   26 2
  31   18   19 1
  32   18   27 2
  33   19   22 ar
  34   19   20 ar
  35   20   21 ar
  36   21   24 ar
  37   21   38 1
  38   22   23 ar
  39   22   39 1
  40   23   24 ar
  41   23   40 1
  42   24   41 1
  43   25   30 1
  44   25   31 1
  45   25   42 1
  46   30   43 1
  47   30   44 1
  48   30   45 1
  49   31   46 1
  50   31   47 1
  51   31   48 1

#	End of record

