#	Name: ASD01912523
#	Creating user name:	WinNT
#	Creation time:	15. 06. 2019 19:59

#	Modifying user name:	WinNT
#	Modification time:	15. 06. 2019 19:59

#	Program:	/corina/corina34_cracker 3.40 0067  02.08.2006

@<TRIPOS>MOLECULE
ASD01912523
  62   66    0    0    0
SMALL
NO_CHARGES


@<TRIPOS>ATOM
   1 C1             0.0711     1.3971     0.2215 C.ar    
   2 C2             0.0825     0.0140     0.2644 C.ar    
   3 C3             1.2468    -0.6648    -0.0894 C.ar    
   4 N4             2.3300     0.0039    -0.4622 N.ar    
   5 C5             2.3461     1.3207    -0.5117 C.ar    
   6 C6             1.2262     2.0572    -0.1743 C.ar    
   7 C7             1.2753    -2.1475    -0.0482 C.2     
   8 N8             0.2746    -2.9288     0.3018 N.2     
   9 C9             2.3730    -2.9592    -0.3817 C.2     
  10 C10            1.9962    -4.2591    -0.2133 C.2     
  11 N11            0.6996    -4.2602     0.2097 N.pl3   
  12 C12            2.8396    -5.4519    -0.4507 C.ar    
  13 C13           -0.1062    -5.4450     0.5149 C.3     
  14 C14           -0.0253    -5.7411     1.9903 C.2     
  15 N15           -0.6923    -6.7937     2.5039 N.am    
  16 O16            0.6399    -5.0323     2.7155 O.2     
  17 C17           -0.6270    -7.1005     3.9409 C.3     
  18 C18           -1.5096    -7.6623     1.6433 C.3     
  19 C19           -2.9024    -7.7951     2.2683 C.3     
  20 N20           -2.7702    -8.2466     3.6599 N.3     
  21 C21           -2.0564    -7.2565     4.4707 C.3     
  22 C22           -4.0101    -8.5341     4.2088 C.ar    
  23 N23           -5.1191    -8.3880     3.4865 N.ar    
  24 C24           -4.1141    -8.9855     5.5219 C.ar    
  25 C25           -5.3794    -9.2598     6.0254 C.ar    
  26 N26           -6.4392    -9.0830     5.2415 N.ar    
  27 C27           -6.3008    -8.6593     4.0015 C.ar    
  28 C28            3.9370    -5.3742    -1.3082 C.ar    
  29 C29            1.2591     3.5626    -0.2351 C.3     
  30 O30           -5.5317    -9.7019     7.2977 O.3     
  31 C31           -6.8659    -9.9610     7.7391 C.3     
  32 C32            4.7198    -6.4896    -1.5250 C.ar    
  33 C33            4.4178    -7.6833    -0.8943 C.ar    
  34 C34            3.3308    -7.7667    -0.0427 C.ar    
  35 C35            2.5438    -6.6569     0.1868 C.ar    
  36 H36           -0.8180     1.9504     0.4857 H       
  37 H37           -0.7987    -0.5317     0.5681 H       
  38 H38            3.2464     1.8312    -0.8201 H       
  39 H39            3.3418    -2.6151    -0.7126 H       
  40 H40           -1.1440    -5.2598     0.2378 H       
  41 H41            0.2736    -6.2976    -0.0481 H       
  42 H42           -0.0769    -8.0292     4.0924 H       
  43 H43           -0.1284    -6.2863     4.4668 H       
  44 H44           -1.5942    -7.2195     0.6509 H       
  45 H45           -1.0458    -8.6460     1.5701 H       
  46 H46           -3.4049    -6.8281     2.2457 H       
  47 H47           -3.4865    -8.5222     1.7040 H       
  48 H48           -2.0210    -7.5924     5.5071 H       
  49 H49           -2.5748    -6.2993     4.4157 H       
  50 H50           -3.2337    -9.1193     6.1330 H       
  51 H51           -7.1819    -8.5261     3.3913 H       
  52 H52            4.1733    -4.4431    -1.8017 H       
  53 H53            0.9511     3.8930    -1.2271 H       
  54 H54            0.5783     3.9714     0.5116 H       
  55 H55            2.2716     3.9124    -0.0337 H       
  56 H56           -6.8459   -10.3081     8.7721 H       
  57 H57           -7.4541    -9.0455     7.6748 H       
  58 H58           -7.3155   -10.7268     7.1071 H       
  59 H59            5.5697    -6.4308    -2.1888 H       
  60 H60            5.0331    -8.5538    -1.0678 H       
  61 H61            3.1000    -8.7015     0.4465 H       
  62 H62            1.6956    -6.7231     0.8521 H       
@<TRIPOS>BOND
   1    1    2 ar
   2    1    6 ar
   3    1   36 1
   4    2    3 ar
   5    2   37 1
   6    3    4 ar
   7    3    7 1
   8    4    5 ar
   9    5    6 ar
  10    5   38 1
  11    6   29 1
  12    7    8 2
  13    7    9 1
  14    8   11 1
  15    9   10 2
  16    9   39 1
  17   10   11 1
  18   10   12 1
  19   11   13 1
  20   12   28 ar
  21   12   35 ar
  22   13   14 1
  23   13   40 1
  24   13   41 1
  25   14   15 am
  26   14   16 2
  27   15   17 1
  28   15   18 1
  29   17   21 1
  30   17   42 1
  31   17   43 1
  32   18   19 1
  33   18   44 1
  34   18   45 1
  35   19   20 1
  36   19   46 1
  37   19   47 1
  38   20   21 1
  39   20   22 1
  40   21   48 1
  41   21   49 1
  42   22   23 ar
  43   22   24 ar
  44   23   27 ar
  45   24   25 ar
  46   24   50 1
  47   25   26 ar
  48   25   30 1
  49   26   27 ar
  50   27   51 1
  51   28   32 ar
  52   28   52 1
  53   29   53 1
  54   29   54 1
  55   29   55 1
  56   30   31 1
  57   31   56 1
  58   31   57 1
  59   31   58 1
  60   32   33 ar
  61   32   59 1
  62   33   34 ar
  63   33   60 1
  64   34   35 ar
  65   34   61 1
  66   35   62 1

#	End of record

