#	Name: ASD03740227
#	Creating user name:	WinNT
#	Creation time:	15. 06. 2019 20:46

#	Modifying user name:	WinNT
#	Modification time:	15. 06. 2019 20:46

#	Program:	/corina/corina34_cracker 3.40 0067  02.08.2006

@<TRIPOS>MOLECULE
ASD03740227
  62   64    0    0    0
SMALL
NO_CHARGES


@<TRIPOS>ATOM
   1 C1            -0.7700     2.4900    -0.2230 C.ar    
   2 N2             0.1278     5.5518    -0.7934 N.2     
   3 O3             2.6303     7.8058    -0.9074 O.2     
   4 S4             1.7443     5.2008    -2.6299 S.3     
   5 C5            -1.1202     1.3218    -0.8765 C.ar    
   6 C6            -0.1553     0.5632    -1.5151 C.ar    
   7 C7             1.1636     0.9677    -1.5039 C.ar    
   8 C8             1.5236     2.1454    -0.8469 C.ar    
   9 C9             0.5452     2.9060    -0.2046 C.ar    
  10 C10           -3.4200     1.9464    -1.5619 C.3     
  11 C11           -2.6763    -0.4361    -1.6746 C.3     
  12 C12           -3.0409     0.6552     0.5432 C.3     
  13 C13            2.9352     2.5847    -0.8304 C.2     
  14 N14            3.2573     3.7993    -0.3433 N.am    
  15 O15            3.8052     1.8503    -1.2562 O.2     
  16 C16            2.3042     4.8087     0.1408 C.3     
  17 C17            3.1240     6.0420     0.5748 C.3     
  18 C18            4.4484     5.8747    -0.2159 C.3     
  19 C19            4.6240     4.3335    -0.2018 C.3     
  20 C20            1.3538     5.1884    -0.9654 C.2     
  21 C21            2.4227     7.3152     0.1771 C.2     
  22 O22            1.5675     7.9043     1.0276 O.3     
  23 C23            0.1106     5.7343    -3.0182 C.2     
  24 C24           -0.5671     5.8515    -1.8723 C.2     
  25 C25            5.2399     3.8765     1.1222 C.3     
  26 C26            5.4817     3.8933    -1.3601 C.2     
  27 O27            5.7939     4.6865    -2.2163 O.2     
  28 O28            5.8988     2.6200    -1.4405 O.3     
  29 C29            6.5720     4.5966     1.3404 C.3     
  30 C30            7.1567     4.1884     2.6941 C.3     
  31 C31            7.5480     4.2123     0.2266 C.3     
  32 C32           -2.5589     0.8735    -0.8924 C.3     
  33 H33           -1.5286     3.0798     0.2701 H       
  34 H34           -0.4352    -0.3479    -2.0231 H       
  35 H35            1.9159     0.3743    -2.0021 H       
  36 H36            0.8173     3.8181     0.3058 H       
  37 H37           -3.0766     2.1020    -2.5846 H       
  38 H38           -4.4606     1.6222    -1.5734 H       
  39 H39           -3.3363     2.8795    -1.0046 H       
  40 H40           -2.0629    -1.2005    -1.1977 H       
  41 H41           -3.7169    -0.7604    -1.6861 H       
  42 H42           -2.3329    -0.2806    -2.6973 H       
  43 H43           -2.9572     1.5882     1.1004 H       
  44 H44           -4.0815     0.3309     0.5316 H       
  45 H45           -2.4274    -0.1092     1.0201 H       
  46 H46            1.7478     4.4152     0.9916 H       
  47 H47            3.3108     6.0226     1.6485 H       
  48 H48            4.3457     6.2503    -1.2340 H       
  49 H49            5.2750     6.3651     0.2983 H       
  50 H50            1.1418     8.7192     0.7280 H       
  51 H51           -0.2751     5.9318    -4.0074 H       
  52 H52           -1.5995     6.1661    -1.8336 H       
  53 H53            4.5600     4.1143     1.9403 H       
  54 H54            5.4093     2.8002     1.0918 H       
  55 H55            6.4469     2.3848    -2.2017 H       
  56 H56            6.4093     5.6743     1.3251 H       
  57 H57            6.4260     4.3833     3.4791 H       
  58 H58            7.3996     3.1259     2.6795 H       
  59 H59            8.0610     4.7652     2.8882 H       
  60 H60            7.2402     4.6859    -0.7056 H       
  61 H61            8.5510     4.5476     0.4906 H       
  62 H62            7.5482     3.1295     0.1013 H       
@<TRIPOS>BOND
   1    1    5 ar
   2    1    9 ar
   3    1   33 1
   4    2   20 2
   5    2   24 1
   6    3   21 2
   7    4   20 1
   8    4   23 1
   9    5    6 ar
  10    5   32 1
  11    6    7 ar
  12    6   34 1
  13    7    8 ar
  14    7   35 1
  15    8    9 ar
  16    8   13 1
  17    9   36 1
  18   10   32 1
  19   10   37 1
  20   10   38 1
  21   10   39 1
  22   11   32 1
  23   11   40 1
  24   11   41 1
  25   11   42 1
  26   12   32 1
  27   12   43 1
  28   12   44 1
  29   12   45 1
  30   13   14 am
  31   13   15 2
  32   14   16 1
  33   14   19 1
  34   16   17 1
  35   16   20 1
  36   16   46 1
  37   17   18 1
  38   17   21 1
  39   17   47 1
  40   18   19 1
  41   18   48 1
  42   18   49 1
  43   19   25 1
  44   19   26 1
  45   21   22 1
  46   22   50 1
  47   23   24 2
  48   23   51 1
  49   24   52 1
  50   25   29 1
  51   25   53 1
  52   25   54 1
  53   26   27 2
  54   26   28 1
  55   28   55 1
  56   29   30 1
  57   29   31 1
  58   29   56 1
  59   30   57 1
  60   30   58 1
  61   30   59 1
  62   31   60 1
  63   31   61 1
  64   31   62 1

#	End of record

