#	Name: ASD01910774
#	Creating user name:	WinNT
#	Creation time:	15. 06. 2019 19:56

#	Modifying user name:	WinNT
#	Modification time:	15. 06. 2019 19:56

#	Program:	/corina/corina34_cracker 3.40 0067  02.08.2006

@<TRIPOS>MOLECULE
ASD01910774
  49   52    0    0    0
SMALL
NO_CHARGES


@<TRIPOS>ATOM
   1 C1            -0.1058     1.7695     0.3925 C.ar    
   2 C2            -0.0100     0.3697     0.4070 C.ar    
   3 C3            -1.1645    -0.3645     0.3538 C.ar    
   4 C4            -2.3907     0.2935     0.2873 C.ar    
   5 N5            -2.4538     1.6178     0.2750 N.ar    
   6 C6            -1.3686     2.3617     0.3305 C.ar    
   7 N7            -3.5611    -0.4467     0.2329 N.3     
   8 C8            -4.7369     0.4315     0.1675 C.3     
   9 C9            -5.9906    -0.4161    -0.0732 C.3     
  10 N10           -6.0525    -1.4624     0.9586 N.am    
  11 C11           -4.8602    -2.2954     1.1773 C.3     
  12 C12           -3.6510    -1.3739     1.3688 C.3     
  13 C13           -7.1719    -1.6525     1.6848 C.2     
  14 C14           -7.2570    -2.7876     2.6286 C.ar    
  15 O15           -8.1114    -0.8908     1.5639 O.2     
  16 C16           -7.8759    -2.6209     3.8695 C.ar    
  17 C17           -7.9563    -3.6795     4.7531 C.ar    
  18 C18           -7.4265    -4.9089     4.4176 C.ar    
  19 C19           -6.8039    -5.0905     3.1785 C.ar    
  20 C20           -6.7251    -4.0269     2.2795 C.ar    
  21 C21           -6.2536    -6.3662     2.8316 C.1     
  22 C22           -5.8025    -7.4120     2.5471 C.1     
  23 C23           -5.2522    -8.6878     2.2002 C.ar    
  24 N24           -4.6617    -8.8531     1.0205 N.ar    
  25 C25           -4.1437   -10.0107     0.6648 C.ar    
  26 C26           -4.1957   -11.1030     1.5113 C.ar    
  27 C27           -4.8032   -10.9754     2.7535 C.ar    
  28 C28           -5.3346    -9.7485     3.1063 C.ar    
  29 C29            1.0743     2.5790     0.4464 C.1     
  30 N30            2.0104     3.2211     0.4892 N.1     
  31 H31            0.9525    -0.1175     0.4586 H       
  32 H32           -1.1250    -1.4438     0.3629 H       
  33 H33           -1.4557     3.4382     0.3188 H       
  34 H34           -4.8391     0.9731     1.1079 H       
  35 H35           -4.6154     1.1417    -0.6504 H       
  36 H36           -6.8771     0.2148    -0.0085 H       
  37 H37           -5.9371    -0.8772    -1.0595 H       
  38 H38           -4.9994    -2.9070     2.0688 H       
  39 H39           -4.6980    -2.9371     0.3112 H       
  40 H40           -2.7420    -1.9729     1.4221 H       
  41 H41           -3.7683    -0.8071     2.2925 H       
  42 H42           -8.2924    -1.6616     4.1390 H       
  43 H43           -8.4358    -3.5443     5.7114 H       
  44 H44           -7.4926    -5.7322     5.1134 H       
  45 H45           -6.2456    -4.1610     1.3211 H       
  46 H46           -3.6719   -10.1083    -0.3018 H       
  47 H47           -3.7679   -12.0473     1.2087 H       
  48 H48           -4.8558   -11.8150     3.4308 H       
  49 H49           -5.8138    -9.6142     4.0648 H       
@<TRIPOS>BOND
   1    1    2 ar
   2    1   29 1
   3    1    6 ar
   4    2    3 ar
   5    2   31 1
   6    3    4 ar
   7    3   32 1
   8    4    5 ar
   9    4    7 1
  10    5    6 ar
  11    6   33 1
  12    7    8 1
  13    7   12 1
  14    8    9 1
  15    8   34 1
  16    8   35 1
  17    9   10 1
  18    9   36 1
  19    9   37 1
  20   10   11 1
  21   10   13 am
  22   11   12 1
  23   11   38 1
  24   11   39 1
  25   12   40 1
  26   12   41 1
  27   13   14 1
  28   13   15 2
  29   14   16 ar
  30   14   20 ar
  31   16   17 ar
  32   16   42 1
  33   17   18 ar
  34   17   43 1
  35   18   19 ar
  36   18   44 1
  37   19   20 ar
  38   19   21 1
  39   20   45 1
  40   21   22 3
  41   22   23 1
  42   23   24 ar
  43   23   28 ar
  44   24   25 ar
  45   25   26 ar
  46   25   46 1
  47   26   27 ar
  48   26   47 1
  49   27   28 ar
  50   27   48 1
  51   28   49 1
  52   29   30 3

#	End of record

