#	Name: ASD01813058
#	Creating user name:	WinNT
#	Creation time:	15. 06. 2019 19:29

#	Modifying user name:	WinNT
#	Modification time:	15. 06. 2019 19:29

#	Program:	/corina/corina34_cracker 3.40 0067  02.08.2006

@<TRIPOS>MOLECULE
ASD01813058
  46   49    0    0    0
SMALL
NO_CHARGES


@<TRIPOS>ATOM
   1 C1            -0.6640     1.4725     0.0038 C.2     
   2 C2            -0.4078     0.1541    -0.0327 C.2     
   3 N3            -1.4205    -0.7579     0.0643 N.pl3   
   4 C4            -2.7091    -0.4179     0.1864 C.2     
   5 C5            -3.0749     0.9131     0.2231 C.2     
   6 C6            -2.0088     1.9191     0.1321 C.2     
   7 O7            -2.2711     3.1111     0.1583 O.2     
   8 C8            -1.0779    -2.1820     0.0326 C.3     
   9 C9            -1.2003    -2.6968    -1.3785 C.ar    
  10 C10            0.4091     2.5253    -0.0784 C.3     
  11 C11            1.7032     1.9372    -0.6364 C.3     
  12 C12            2.0303     0.6654     0.1560 C.3     
  13 C13            0.9888    -0.3952    -0.1909 C.3     
  14 C14           -0.0789    -2.7664    -2.1859 C.ar    
  15 C15           -0.1841    -3.2367    -3.4786 C.ar    
  16 C16           -1.4252    -3.6428    -3.9713 C.ar    
  17 C17           -2.5524    -3.5700    -3.1516 C.ar    
  18 C18           -2.4325    -3.1030    -1.8589 C.ar    
  19 C19           -1.5453    -4.1473    -5.3557 C.2     
  20 O20           -0.0336     3.5824    -0.9320 O.3     
  21 S21           -0.2189    -4.2961    -6.5011 S.3     
  22 C22           -1.3081    -4.9296    -7.7278 C.2     
  23 C23           -2.5501    -4.9940    -7.2394 C.2     
  24 C24           -2.6873    -4.5701    -5.9336 C.2     
  25 C25           -4.4856     1.3103     0.3538 C.2     
  26 O26           -5.3514     0.4609     0.4315 O.2     
  27 O27           -4.8177     2.6162     0.3874 O.3     
  28 H28           -3.4648    -1.1864     0.2559 H       
  29 H29           -0.0541    -2.3172     0.3812 H       
  30 H30           -1.7584    -2.7339     0.6810 H       
  31 H31            0.5969     2.9248     0.9182 H       
  32 H32            1.5712     1.6906    -1.6899 H       
  33 H33            2.5130     2.6584    -0.5254 H       
  34 H34            3.0235     0.3081    -0.1160 H       
  35 H35            1.9957     0.8788     1.2244 H       
  36 H36            1.1146    -1.2517     0.4714 H       
  37 H37            1.1334    -0.7160    -1.2225 H       
  38 H38            0.8808    -2.4516    -1.8034 H       
  39 H39            0.6919    -3.2903    -4.1079 H       
  40 H40           -3.5157    -3.8826    -3.5269 H       
  41 H41           -3.3040    -3.0461    -1.2236 H       
  42 H42            0.6067     4.2998    -1.0341 H       
  43 H43           -1.0171    -5.2223    -8.7259 H       
  44 H44           -3.3845    -5.3547    -7.8225 H       
  45 H45           -3.6361    -4.5701    -5.4177 H       
  46 H46           -5.7572     2.8281     0.4744 H       
@<TRIPOS>BOND
   1    1    2 2
   2    1   10 1
   3    1    6 1
   4    2    3 1
   5    2   13 1
   6    3    4 1
   7    3    8 1
   8    4    5 2
   9    4   28 1
  10    5    6 1
  11    5   25 1
  12    6    7 2
  13    8    9 1
  14    8   29 1
  15    8   30 1
  16    9   14 ar
  17    9   18 ar
  18   10   11 1
  19   10   20 1
  20   10   31 1
  21   11   12 1
  22   11   32 1
  23   11   33 1
  24   12   13 1
  25   12   34 1
  26   12   35 1
  27   13   36 1
  28   13   37 1
  29   14   15 ar
  30   14   38 1
  31   15   16 ar
  32   15   39 1
  33   16   17 ar
  34   16   19 1
  35   17   18 ar
  36   17   40 1
  37   18   41 1
  38   19   21 1
  39   19   24 2
  40   20   42 1
  41   21   22 1
  42   22   23 2
  43   22   43 1
  44   23   24 1
  45   23   44 1
  46   24   45 1
  47   25   26 2
  48   25   27 1
  49   27   46 1

#	End of record

