#	Name: ASD02860010
#	Creating user name:	WinNT
#	Creation time:	15. 06. 2019 20:26

#	Modifying user name:	WinNT
#	Modification time:	15. 06. 2019 20:26

#	Program:	/corina/corina34_cracker 3.40 0067  02.08.2006

@<TRIPOS>MOLECULE
ASD02860010
 114  117    0    0    0
SMALL
NO_CHARGES


@<TRIPOS>ATOM
   1 N1            -1.1736     2.8077     0.0091 N.3     
   2 C2            -0.6259     1.4766    -0.2845 C.3     
   3 C3            -0.1638     1.4285    -1.7181 C.2     
   4 C4            -1.7090     0.4191    -0.0620 C.3     
   5 N5             0.7199     0.4895    -2.1101 N.am    
   6 O6            -0.5871     2.2349    -2.5190 O.2     
   7 C7            -2.0838     0.3831     1.3972 C.2     
   8 C8            -1.5853    -0.4441     2.3295 C.2     
   9 N9            -2.1635    -0.1832     3.5418 N.pl3   
  10 C10           -3.0713     0.8444     3.4160 C.ar    
  11 C11           -3.0566     1.2484     2.0686 C.ar    
  12 C12           -3.9154     1.4919     4.3125 C.ar    
  13 C13           -4.7283     2.5128     3.8714 C.ar    
  14 C14           -4.7147     2.9036     2.5393 C.ar    
  15 C15           -3.8881     2.2864     1.6434 C.ar    
  16 C16            1.1692     0.4427    -3.5037 C.3     
  17 C17            1.8397     1.7447    -3.8593 C.2     
  18 N18            2.6749     1.8062    -4.9153 N.am    
  19 O19            1.6277     2.7371    -3.1952 O.2     
  20 C20           -0.0355     0.2223    -4.4208 C.3     
  21 C21           -0.6416    -1.1551    -4.1445 C.3     
  22 C22           -1.8463    -1.3754    -5.0615 C.3     
  23 N23           -2.4266    -2.6943    -4.7970 N.pl3   
  24 C24           -3.5265    -3.1161    -5.5058 C.2     
  25 N25           -4.0711    -4.3539    -5.2575 N.am    
  26 N26           -4.0530    -2.3426    -6.4132 N.2     
  27 C27            3.3267     3.0718    -5.2609 C.3     
  28 C28            4.2153     2.8689    -6.4898 C.3     
  29 C29            4.8960     4.1907    -6.8508 C.3     
  30 N30            5.7492     3.9959    -8.0307 N.3     
  31 C31            6.4205     5.2471    -8.4073 C.3     
  32 C32            7.2979     5.0049    -9.6371 C.3     
  33 C33            7.9971     6.3080   -10.0294 C.3     
  34 N34            8.8372     6.0762   -11.2070 N.am    
  35 S35           -5.3230    -4.9095    -6.1884 S.o2    
  36 O36           -4.8680    -4.8759    -7.5341 O.2     
  37 O37           -5.7982    -6.0910    -5.5579 O.2     
  38 C38           -6.6237    -3.7265    -6.0731 C.ar    
  39 C39           -7.2507    -3.5041    -4.8613 C.ar    
  40 C40           -8.2705    -2.5784    -4.7725 C.ar    
  41 C41           -8.6706    -1.8675    -5.8992 C.ar    
  42 C42           -8.0381    -2.0893    -7.1103 C.ar    
  43 C43           -7.0133    -3.0168    -7.1926 C.ar    
  44 O44           -9.6850    -0.9726    -5.7749 O.3     
  45 C45           -9.8436     0.0040    -6.8050 C.3     
  46 C46           -9.8198    -0.7136    -8.1606 C.3     
  47 C47           -8.4328    -1.3322    -8.3529 C.3     
  48 C48           -6.3274    -3.2615    -8.5119 C.3     
  49 C49           -6.8212    -4.2723    -3.6380 C.3     
  50 C50           -8.9531    -2.3373    -3.4508 C.3     
  51 C51          -11.1805     0.7268    -6.6282 C.3     
  52 C52           -8.6975     1.0152    -6.7372 C.3     
  53 C53            9.5528     7.0892   -11.7343 C.2     
  54 C54           10.4169     6.8507   -12.9457 C.3     
  55 O55            9.5012     8.1928   -11.2340 O.2     
  56 H56           -0.4603     3.5172    -0.0680 H       
  57 H57           -1.9576     3.0165    -0.5908 H       
  58 H58            0.2178     1.2771     0.3762 H       
  59 H59           -2.5878     0.6684    -0.6568 H       
  60 H60           -1.3308    -0.5575    -0.3642 H       
  61 H61            1.0585    -0.1554    -1.4694 H       
  62 H62           -0.8388    -1.2036     2.1492 H       
  63 H63           -1.9639    -0.6525     4.3669 H       
  64 H64           -3.9335     1.1950     5.3507 H       
  65 H65           -5.3831     3.0139     4.5689 H       
  66 H66           -5.3585     3.7056     2.2098 H       
  67 H67           -3.8829     2.5958     0.6087 H       
  68 H68            1.8768    -0.3767    -3.6301 H       
  69 H69            2.8445     1.0124    -5.4464 H       
  70 H70           -0.7827     0.9928    -4.2306 H       
  71 H71            0.2852     0.2761    -5.4611 H       
  72 H72            0.1056    -1.9256    -4.3346 H       
  73 H73           -0.9623    -1.2088    -3.1041 H       
  74 H74           -2.5934    -0.6049    -4.8714 H       
  75 H75           -1.5256    -1.3217    -6.1019 H       
  76 H76           -2.0348    -3.2700    -4.1217 H       
  77 H77           -3.7221    -4.9016    -4.5371 H       
  78 H78           -4.8789    -2.6013    -6.8512 H       
  79 H79            2.5681     3.8229    -5.4811 H       
  80 H80            3.9372     3.4070    -4.4225 H       
  81 H81            4.9739     2.1178    -6.2696 H       
  82 H82            3.6048     2.5337    -7.3283 H       
  83 H83            4.1374     4.9418    -7.0710 H       
  84 H84            5.5065     4.5259    -6.0124 H       
  85 H85            6.4199     3.2586    -7.8741 H       
  86 H86            5.6725     6.0055    -8.6383 H       
  87 H87            7.0416     5.5895    -7.5796 H       
  88 H88            8.0459     4.2465    -9.4062 H       
  89 H89            6.6768     4.6624   -10.4648 H       
  90 H90            7.2491     7.0664   -10.2604 H       
  91 H91            8.6182     6.6505    -9.2017 H       
  92 H92            8.8785     5.1935   -11.6071 H       
  93 H93          -10.5769    -1.4977    -8.1746 H       
  94 H94          -10.0166     0.0022    -8.9587 H       
  95 H95           -7.7063    -0.5420    -8.5424 H       
  96 H96           -8.4548    -2.0152    -9.2021 H       
  97 H97           -5.3359    -2.8091    -8.4953 H       
  98 H98           -6.2345    -4.3345    -8.6796 H       
  99 H99           -6.9158    -2.8179    -9.3151 H       
 100 H100          -6.0322    -3.7241    -3.1231 H       
 101 H101          -7.6730    -4.3967    -2.9695 H       
 102 H102          -6.4476    -5.2518    -3.9367 H       
 103 H103          -8.4325    -1.5456    -2.9120 H       
 104 H104          -9.9870    -2.0394    -3.6248 H       
 105 H105          -8.9334    -3.2528    -2.8594 H       
 106 H106         -11.2011     1.2199    -5.6563 H       
 107 H107         -11.2981     1.4710    -7.4158 H       
 108 H108         -11.9946     0.0044    -6.6865 H       
 109 H109          -7.7478     0.4977    -6.8729 H       
 110 H110          -8.8218     1.7587    -7.5245 H       
 111 H111          -8.7062     1.5097    -5.7659 H       
 112 H112          10.3355     5.8073   -13.2503 H       
 113 H113          10.0856     7.4941   -13.7607 H       
 114 H114          11.4547     7.0782   -12.7021 H       
@<TRIPOS>BOND
   1    1    2 1
   2    1   56 1
   3    1   57 1
   4    2    3 1
   5    2    4 1
   6    2   58 1
   7    3    5 am
   8    3    6 2
   9    4    7 1
  10    4   59 1
  11    4   60 1
  12    5   16 1
  13    5   61 1
  14    7    8 2
  15    7   11 1
  16    8    9 1
  17    8   62 1
  18    9   10 1
  19    9   63 1
  20   10   11 ar
  21   10   12 ar
  22   11   15 ar
  23   12   13 ar
  24   12   64 1
  25   13   14 ar
  26   13   65 1
  27   14   15 ar
  28   14   66 1
  29   15   67 1
  30   16   17 1
  31   16   20 1
  32   16   68 1
  33   17   18 am
  34   17   19 2
  35   18   27 1
  36   18   69 1
  37   20   21 1
  38   20   70 1
  39   20   71 1
  40   21   22 1
  41   21   72 1
  42   21   73 1
  43   22   23 1
  44   22   74 1
  45   22   75 1
  46   23   24 1
  47   23   76 1
  48   24   25 1
  49   24   26 2
  50   25   35 am
  51   25   77 1
  52   26   78 1
  53   27   28 1
  54   27   79 1
  55   27   80 1
  56   28   29 1
  57   28   81 1
  58   28   82 1
  59   29   30 1
  60   29   83 1
  61   29   84 1
  62   30   31 1
  63   30   85 1
  64   31   32 1
  65   31   86 1
  66   31   87 1
  67   32   33 1
  68   32   88 1
  69   32   89 1
  70   33   34 1
  71   33   90 1
  72   33   91 1
  73   34   53 am
  74   34   92 1
  75   35   36 2
  76   35   37 2
  77   35   38 1
  78   38   39 ar
  79   38   43 ar
  80   39   40 ar
  81   39   49 1
  82   40   41 ar
  83   40   50 1
  84   41   42 ar
  85   41   44 1
  86   42   43 ar
  87   42   47 1
  88   43   48 1
  89   44   45 1
  90   45   46 1
  91   45   51 1
  92   45   52 1
  93   46   47 1
  94   46   93 1
  95   46   94 1
  96   47   95 1
  97   47   96 1
  98   48   97 1
  99   48   98 1
 100   48   99 1
 101   49  100 1
 102   49  101 1
 103   49  102 1
 104   50  103 1
 105   50  104 1
 106   50  105 1
 107   51  106 1
 108   51  107 1
 109   51  108 1
 110   52  109 1
 111   52  110 1
 112   52  111 1
 113   53   54 1
 114   53   55 2
 115   54  112 1
 116   54  113 1
 117   54  114 1

#	End of record

