#	Name: ASD01870021
#	Creating user name:	WinNT
#	Creation time:	15. 06. 2019 19:38

#	Modifying user name:	WinNT
#	Modification time:	15. 06. 2019 19:38

#	Program:	/corina/corina34_cracker 3.40 0067  02.08.2006

@<TRIPOS>MOLECULE
ASD01870021
  41   44    0    0    0
SMALL
NO_CHARGES


@<TRIPOS>ATOM
   1 C1            -0.0197     1.5441    -0.0032 C.3     
   2 C2            -0.0001    -0.0002    -0.0427 C.3     
   3 C3            -1.3698    -0.3590    -0.6048 C.2     
   4 C4            -1.6419     0.6950    -1.6623 C.3     
   5 C5            -0.8334     1.9430    -1.2704 C.3     
   6 C6            -1.8109     2.9894    -0.6722 C.3     
   7 O7            -2.0607     2.4808     0.6546 O.3     
   8 C8            -0.8713     2.0046     1.1608 C.2     
   9 C9             1.3845     2.1512     0.0171 C.3     
  10 C10            1.2845     3.6516    -0.0823 C.ar    
  11 C11            1.1000     4.3875     1.0479 C.ar    
  12 C12            1.0063     5.7866     0.9589 C.ar    
  13 C13            1.1059     6.4103    -0.3101 C.ar    
  14 C14            1.2962     5.6175    -1.4543 C.ar    
  15 C15            1.3880     4.2651    -1.3290 C.ar    
  16 C16            0.8153     6.5799     2.1033 C.ar    
  17 C17            0.7288     7.9323     1.9784 C.ar    
  18 C18            0.8263     8.5455     0.7306 C.ar    
  19 C19            1.0118     7.8098    -0.3992 C.ar    
  20 C20           -2.1420    -1.3571    -0.2532 C.2     
  21 C21           -0.5453     1.9563     2.4360 C.2     
  22 H22            0.7909    -0.3572    -0.7022 H       
  23 H23            0.1219    -0.4083     0.9606 H       
  24 H24           -1.3193     0.3342    -2.6389 H       
  25 H25           -2.7054     0.9328    -1.6858 H       
  26 H26           -0.2144     2.3261    -2.0817 H       
  27 H27           -1.3422     3.9724    -0.6261 H       
  28 H28           -2.7343     3.0284    -1.2500 H       
  29 H29            1.8837     1.8812     0.9476 H       
  30 H30            1.9580     1.7686    -0.8272 H       
  31 H31            1.0256     3.8985     2.0080 H       
  32 H32            1.3735     6.0790    -2.4277 H       
  33 H33            1.5347     3.6580    -2.2101 H       
  34 H34            0.7372     6.1185     3.0767 H       
  35 H35            0.5820     8.5394     2.8594 H       
  36 H36            0.7540     9.6207     0.6592 H       
  37 H37            1.0863     8.2988    -1.3593 H       
  38 H38           -1.8236    -2.0396     0.5208 H       
  39 H39           -3.0972    -1.4974    -0.7374 H       
  40 H40           -1.2034     2.3835     3.1781 H       
  41 H41            0.3801     1.4894     2.7394 H       
@<TRIPOS>BOND
   1    1    2 1
   2    1    9 1
   3    1    5 1
   4    1    8 1
   5    2    3 1
   6    2   22 1
   7    2   23 1
   8    3    4 1
   9    3   20 2
  10    4    5 1
  11    4   24 1
  12    4   25 1
  13    5    6 1
  14    5   26 1
  15    6    7 1
  16    6   27 1
  17    6   28 1
  18    7    8 1
  19    8   21 2
  20    9   10 1
  21    9   29 1
  22    9   30 1
  23   10   11 ar
  24   10   15 ar
  25   11   12 ar
  26   11   31 1
  27   12   13 ar
  28   12   16 ar
  29   13   14 ar
  30   13   19 ar
  31   14   15 ar
  32   14   32 1
  33   15   33 1
  34   16   17 ar
  35   16   34 1
  36   17   18 ar
  37   17   35 1
  38   18   19 ar
  39   18   36 1
  40   19   37 1
  41   20   38 1
  42   20   39 1
  43   21   40 1
  44   21   41 1

#	End of record

