#	Name: ASD01420114
#	Creating user name:	WinNT
#	Creation time:	15. 06. 2019 19:20

#	Modifying user name:	WinNT
#	Modification time:	15. 06. 2019 19:20

#	Program:	/corina/corina34_cracker 3.40 0067  02.08.2006

@<TRIPOS>MOLECULE
ASD01420114
  84   89    0    0    0
SMALL
NO_CHARGES


@<TRIPOS>ATOM
   1 C1            -0.0144     1.2120     0.0087 C.2     
   2 O2             0.2380     0.1776     0.5964 O.2     
   3 C3             0.7525     2.9847    -1.6008 C.3     
   4 N4             0.9294     1.8036    -0.7500 N.am    
   5 C5             2.3300     1.3898    -0.8821 C.3     
   6 C6             3.0029     2.3464    -1.8337 C.ar    
   7 C7             4.3057     2.4053    -2.2983 C.ar    
   8 C8             4.6819     3.3980    -3.1822 C.ar    
   9 C9             3.7560     4.3341    -3.6040 C.ar    
  10 C10            2.4557     4.2756    -3.1412 C.ar    
  11 C11            2.0782     3.2812    -2.2550 C.ar    
  12 N12            8.3231     5.0329    -4.6498 N.3     
  13 C13            7.5656     4.1809    -5.5754 C.3     
  14 C14            6.1178     4.0633    -5.0936 C.3     
  15 C15            6.1008     3.4609    -3.6859 C.3     
  16 C16            6.9366     4.3411    -2.7525 C.3     
  17 C17            8.3607     4.4507    -3.3022 C.3     
  18 C18            9.6804     5.2812    -5.1540 C.3     
  19 O19            6.6530     2.1435    -3.7235 O.3     
  20 C20           -1.3540     1.8151     0.1213 C.ar    
  21 C21           -2.4987     1.0051     0.0473 C.ar    
  22 C22           -3.7577     1.5723     0.1526 C.ar    
  23 C23           -3.8929     2.9390     0.3311 C.ar    
  24 C24           -2.7537     3.7559     0.4066 C.ar    
  25 C25           -1.4875     3.1916     0.3073 C.ar    
  26 C26           -2.9007     5.2135     0.5965 C.2     
  27 C27           -3.2902     5.9781    -0.4147 C.2     
  28 C28           -2.6079     5.8317     1.9394 C.3     
  29 O29           -5.1286     3.4893     0.4327 O.3     
  30 C30           -6.2439     2.6001     0.3469 C.3     
  31 C31           -7.5235     3.3850     0.4797 C.ar    
  32 C32           -8.1403     3.8971    -0.6465 C.ar    
  33 C33           -9.3140     4.6171    -0.5247 C.ar    
  34 C34           -9.8712     4.8246     0.7233 C.ar    
  35 C35           -9.2549     4.3118     1.8493 C.ar    
  36 C36           -8.0834     3.5881     1.7271 C.ar    
  37 O37           -2.3712    -0.3337    -0.1279 O.3     
  38 C38           -3.5774    -1.0971    -0.1943 C.3     
  39 C39           -3.2405    -2.5529    -0.3900 C.ar    
  40 C40           -3.0549    -3.3729     0.7073 C.ar    
  41 C41           -2.7458    -4.7082     0.5278 C.ar    
  42 C42           -2.6228    -5.2236    -0.7489 C.ar    
  43 C43           -2.8093    -4.4038    -1.8462 C.ar    
  44 C44           -3.1226    -3.0695    -1.6667 C.ar    
  45 H45            0.0014     2.7810    -2.3640 H       
  46 H46            0.4420     3.8346    -0.9932 H       
  47 H47            2.8204     1.4300     0.0905 H       
  48 H48            2.3797     0.3763    -1.2803 H       
  49 H49            5.0291     1.6741    -1.9689 H       
  50 H50            4.0492     5.1108    -4.2948 H       
  51 H51            1.7327     5.0072    -3.4706 H       
  52 H52            7.5821     4.6227    -6.5717 H       
  53 H53            8.0184     3.1900    -5.6101 H       
  54 H54            5.6600     5.0522    -5.0718 H       
  55 H55            5.5597     3.4182    -5.7722 H       
  56 H56            6.4917     5.3345    -2.6939 H       
  57 H57            6.9636     3.8945    -1.7586 H       
  58 H58            8.8098     3.4585    -3.3476 H       
  59 H59            8.9546     5.0884    -2.6475 H       
  60 H60            9.6230     5.7806    -6.1212 H       
  61 H61           10.2194     5.9146    -4.4495 H       
  62 H62           10.2058     4.3327    -5.2654 H       
  63 H63            6.6754     1.7017    -2.8636 H       
  64 H64           -4.6365     0.9472     0.0950 H       
  65 H65           -0.6094     3.8173     0.3695 H       
  66 H66           -3.3976     7.0438    -0.2758 H       
  67 H67           -3.5000     5.5351    -1.3770 H       
  68 H68           -2.3040     5.0533     2.6392 H       
  69 H69           -1.8046     6.5612     1.8361 H       
  70 H70           -3.5033     6.3277     2.3140 H       
  71 H71           -6.2287     2.0902    -0.6164 H       
  72 H72           -6.1843     1.8641     1.1486 H       
  73 H73           -7.7049     3.7349    -1.6215 H       
  74 H74           -9.7955     5.0177    -1.4045 H       
  75 H75          -10.7878     5.3878     0.8185 H       
  76 H76           -9.6900     4.4743     2.8244 H       
  77 H77           -7.6039     3.1843     2.6065 H       
  78 H78           -4.1362    -0.9750     0.7336 H       
  79 H79           -4.1824    -0.7485    -1.0313 H       
  80 H80           -3.1510    -2.9702     1.7048 H       
  81 H81           -2.6001    -5.3487     1.3851 H       
  82 H82           -2.3806    -6.2667    -0.8891 H       
  83 H83           -2.7128    -4.8064    -2.8437 H       
  84 H84           -3.2720    -2.4298    -2.5240 H       
@<TRIPOS>BOND
   1    1    2 2
   2    1    4 am
   3    1   20 1
   4    3    4 1
   5    3   11 1
   6    3   45 1
   7    3   46 1
   8    4    5 1
   9    5    6 1
  10    5   47 1
  11    5   48 1
  12    6    7 ar
  13    6   11 ar
  14    7    8 ar
  15    7   49 1
  16    8    9 ar
  17    8   15 1
  18    9   10 ar
  19    9   50 1
  20   10   11 ar
  21   10   51 1
  22   12   13 1
  23   12   17 1
  24   12   18 1
  25   13   14 1
  26   13   52 1
  27   13   53 1
  28   14   15 1
  29   14   54 1
  30   14   55 1
  31   15   16 1
  32   15   19 1
  33   16   17 1
  34   16   56 1
  35   16   57 1
  36   17   58 1
  37   17   59 1
  38   18   60 1
  39   18   61 1
  40   18   62 1
  41   19   63 1
  42   20   21 ar
  43   20   25 ar
  44   21   22 ar
  45   21   37 1
  46   22   23 ar
  47   22   64 1
  48   23   24 ar
  49   23   29 1
  50   24   25 ar
  51   24   26 1
  52   25   65 1
  53   26   27 2
  54   26   28 1
  55   27   66 1
  56   27   67 1
  57   28   68 1
  58   28   69 1
  59   28   70 1
  60   29   30 1
  61   30   31 1
  62   30   71 1
  63   30   72 1
  64   31   32 ar
  65   31   36 ar
  66   32   33 ar
  67   32   73 1
  68   33   34 ar
  69   33   74 1
  70   34   35 ar
  71   34   75 1
  72   35   36 ar
  73   35   76 1
  74   36   77 1
  75   37   38 1
  76   38   39 1
  77   38   78 1
  78   38   79 1
  79   39   40 ar
  80   39   44 ar
  81   40   41 ar
  82   40   80 1
  83   41   42 ar
  84   41   81 1
  85   42   43 ar
  86   42   82 1
  87   43   44 ar
  88   43   83 1
  89   44   84 1

#	End of record

