#	Name: ASD06170179
#	Creating user name:	WinNT
#	Creation time:	15. 06. 2019 21:05

#	Modifying user name:	WinNT
#	Modification time:	15. 06. 2019 21:05

#	Program:	/corina/corina34_cracker 3.40 0067  02.08.2006

@<TRIPOS>MOLECULE
ASD06170179
  71   75    0    0    0
SMALL
NO_CHARGES


@<TRIPOS>ATOM
   1 N1             0.6832     2.6125    -0.1163 N.pl3   
   2 N2             0.6947     1.2714    -0.5111 N.am    
   3 C3             1.9601     0.8104    -0.4294 C.2     
   4 C4             2.7843     1.9333     0.0449 C.2     
   5 C5             1.9285     3.0041     0.2142 C.2     
   6 C6             4.2315     1.9183     0.2904 C.2     
   7 O7             4.7922     2.9237     0.6849 O.2     
   8 N8             4.9392     0.7910     0.0788 N.am    
   9 C9            -0.4190     0.5314    -0.9213 C.ar    
  10 C10           -1.2803     1.0449    -1.8822 C.ar    
  11 C11           -2.3792     0.3117    -2.2850 C.ar    
  12 C12           -2.6224    -0.9325    -1.7327 C.ar    
  13 C13           -1.7667    -1.4467    -0.7757 C.ar    
  14 C14           -0.6629    -0.7210    -0.3727 C.ar    
  15 O15            2.3442    -0.3132    -0.6953 O.2     
  16 C16            2.3222     4.3794     0.6882 C.3     
  17 C17           -0.5062     3.4668    -0.0744 C.3     
  18 C18           -1.0881     3.4618     1.3406 C.3     
  19 C19           -2.3982     4.2520     1.3560 C.3     
  20 C20           -1.3569     2.0200     1.7764 C.3     
  21 O21           -0.1569     4.0658     2.2407 O.3     
  22 C22            6.3317     0.7999     0.2284 C.ar    
  23 C23            6.9189     1.5802     1.2162 C.ar    
  24 C24            8.2928     1.5889     1.3636 C.ar    
  25 C25            9.0868     0.8158     0.5224 C.ar    
  26 C26            8.4982     0.0367    -0.4641 C.ar    
  27 C27            7.1244     0.0244    -0.6070 C.ar    
  28 N28           10.4795     0.8241     0.6706 N.pl3   
  29 N29           12.9050     0.2103    -2.6475 N.ar    
  30 C30           11.6333     0.4971    -2.8036 C.ar    
  31 C31           10.7920     0.7085    -1.7205 C.ar    
  32 C32           11.2952     0.6176    -0.4314 C.ar    
  33 C33           12.6675     0.3080    -0.2759 C.ar    
  34 C34           13.2485     0.1985     0.9950 C.ar    
  35 C35           14.5713    -0.1011     1.1119 C.ar    
  36 C36           15.3616    -0.3020    -0.0232 C.ar    
  37 C37           14.8201    -0.2010    -1.2850 C.ar    
  38 C38           13.4584     0.1065    -1.4329 C.ar    
  39 O39           16.6791    -0.6000     0.1201 O.3     
  40 C40           17.1823    -0.6905     1.4545 C.3     
  41 F41            8.8648     2.3479     2.3238 F       
  42 H42            4.4841    -0.0265    -0.1772 H       
  43 H43           -1.0912     2.0167    -2.3137 H       
  44 H44           -3.0496     0.7106    -3.0320 H       
  45 H45           -3.4826    -1.5038    -2.0491 H       
  46 H46           -1.9594    -2.4187    -0.3463 H       
  47 H47            0.0074    -1.1250     0.3715 H       
  48 H48            2.2494     4.4239     1.7748 H       
  49 H49            3.3478     4.5888     0.3839 H       
  50 H50            1.6544     5.1202     0.2486 H       
  51 H51           -0.2322     4.4849    -0.3510 H       
  52 H52           -1.2506     3.0879    -0.7747 H       
  53 H53           -3.1085     3.7913     0.6695 H       
  54 H54           -2.8128     4.2484     2.3641 H       
  55 H55           -2.2067     5.2791     1.0456 H       
  56 H56           -0.4236     1.4571     1.7654 H       
  57 H57           -1.7715     2.0165     2.7845 H       
  58 H58           -2.0672     1.5594     1.0898 H       
  59 H59           -0.4606     4.0969     3.1583 H       
  60 H60            6.3018     2.1803     1.8685 H       
  61 H61            9.1143    -0.5632    -1.1174 H       
  62 H62            6.6668    -0.5855    -1.3719 H       
  63 H63           10.8734     0.9743     1.5442 H       
  64 H64           11.2306     0.5704    -3.8031 H       
  65 H65            9.7502     0.9436    -1.8808 H       
  66 H66           12.6482     0.3519     1.8796 H       
  67 H67           15.0152    -0.1841     2.0929 H       
  68 H68           15.4392    -0.3577    -2.1559 H       
  69 H69           17.0410     0.2639     1.9617 H       
  70 H70           16.6452    -1.4712     1.9932 H       
  71 H71           18.2445    -0.9334     1.4266 H       
@<TRIPOS>BOND
   1    1    2 1
   2    1    5 1
   3    1   17 1
   4    2    3 am
   5    2    9 1
   6    3    4 1
   7    3   15 2
   8    4    5 2
   9    4    6 1
  10    5   16 1
  11    6    7 2
  12    6    8 am
  13    8   22 1
  14    8   42 1
  15    9   10 ar
  16    9   14 ar
  17   10   11 ar
  18   10   43 1
  19   11   12 ar
  20   11   44 1
  21   12   13 ar
  22   12   45 1
  23   13   14 ar
  24   13   46 1
  25   14   47 1
  26   16   48 1
  27   16   49 1
  28   16   50 1
  29   17   18 1
  30   17   51 1
  31   17   52 1
  32   18   19 1
  33   18   20 1
  34   18   21 1
  35   19   53 1
  36   19   54 1
  37   19   55 1
  38   20   56 1
  39   20   57 1
  40   20   58 1
  41   21   59 1
  42   22   23 ar
  43   22   27 ar
  44   23   24 ar
  45   23   60 1
  46   24   25 ar
  47   24   41 1
  48   25   26 ar
  49   25   28 1
  50   26   27 ar
  51   26   61 1
  52   27   62 1
  53   28   32 1
  54   28   63 1
  55   29   30 ar
  56   29   38 ar
  57   30   31 ar
  58   30   64 1
  59   31   32 ar
  60   31   65 1
  61   32   33 ar
  62   33   34 ar
  63   33   38 ar
  64   34   35 ar
  65   34   66 1
  66   35   36 ar
  67   35   67 1
  68   36   37 ar
  69   36   39 1
  70   37   38 ar
  71   37   68 1
  72   39   40 1
  73   40   69 1
  74   40   70 1
  75   40   71 1

#	End of record

