#	Name: ASD04910448
#	Creating user name:	WinNT
#	Creation time:	15. 06. 2019 20:55

#	Modifying user name:	WinNT
#	Modification time:	15. 06. 2019 20:55

#	Program:	/corina/corina34_cracker 3.40 0067  02.08.2006

@<TRIPOS>MOLECULE
ASD04910448
  68   71    0    0    0
SMALL
NO_CHARGES


@<TRIPOS>ATOM
   1 C1             1.9680     1.6206     1.3753 C.2     
   2 C2             1.7140     0.1530     1.1459 C.3     
   3 C3             3.0492    -0.5910     1.0773 C.3     
   4 O4             3.1007     2.0295     1.4737 O.2     
   5 O5             0.9361     2.4744     1.4646 O.3     
   6 C6             3.8386    -2.8742     0.7590 C.2     
   7 C7             3.5894    -4.3140     0.5340 C.ar    
   8 C8             4.6604    -5.2036     0.4348 C.ar    
   9 C9             4.4209    -6.5459     0.2253 C.ar    
  10 C10            3.1226    -7.0109     0.1130 C.ar    
  11 C11            2.0565    -6.1344     0.2104 C.ar    
  12 C12            2.2820    -4.7905     0.4255 C.ar    
  13 O13            4.9781    -2.4628     0.8580 O.2     
  14 N14            2.8022    -2.0178     0.8543 N.am    
  15 C15            2.8687    -8.4785    -0.1168 C.3     
  16 O16            1.6764    -8.8685     0.5676 O.3     
  17 C17            1.7929    -9.1680     1.8885 C.ar    
  18 C18            0.6781    -9.5712     2.6091 C.ar    
  19 C19            0.7960    -9.8755     3.9508 C.ar    
  20 C20            2.0302    -9.7778     4.5786 C.ar    
  21 C21            3.1454    -9.3743     3.8572 C.ar    
  22 C22            3.0277    -9.0757     2.5142 C.ar    
  23 C23            1.9607   -11.3036     6.5144 C.2     
  24 N24            2.1622   -11.1951     7.7995 N.2     
  25 C25            2.4827    -9.9263     8.0933 C.2     
  26 C26            2.4813    -9.2166     6.9487 C.2     
  27 N27            2.1504   -10.0866     5.9425 N.pl3   
  28 C28            2.7908    -9.3879     9.4667 C.3     
  29 F29            2.8046   -10.4406    10.3880 F       
  30 F30            4.0427    -8.7638     9.4529 F       
  31 F31            1.8109    -8.4595     9.8342 F       
  32 C32            4.4855    -9.2681     4.5382 C.3     
  33 C33           -0.4151   -10.3131     4.7336 C.3     
  34 C34            2.7049    -8.7391    -1.6155 C.3     
  35 C35            2.5835   -10.2506    -1.8775 C.3     
  36 C36            1.2064   -10.4746    -2.5358 C.3     
  37 C37            0.8620    -9.1048    -3.1714 C.3     
  38 C38            1.3973    -8.0974    -2.1237 C.3     
  39 H39            1.1179    -0.2453     1.9670 H       
  40 H40            1.1752     0.0198     0.2078 H       
  41 H41            3.6452    -0.1928     0.2562 H       
  42 H42            3.5880    -0.4578     2.0153 H       
  43 H43            1.1487     3.4061     1.6122 H       
  44 H44            5.6742    -4.8417     0.5216 H       
  45 H45            5.2487    -7.2353     0.1483 H       
  46 H46            1.0455    -6.5038     0.1218 H       
  47 H47            1.4488    -4.1080     0.5058 H       
  48 H48            1.8929    -2.3460     0.7752 H       
  49 H49            3.7111    -9.0568     0.2626 H       
  50 H50           -0.2822    -9.6468     2.1207 H       
  51 H51            3.8962    -8.7660     1.9519 H       
  52 H52            1.6927   -12.2105     5.9926 H       
  53 H53            2.6986    -8.1639     6.8439 H       
  54 H54            5.0080   -10.2218     4.4628 H       
  55 H55            5.0775    -8.4904     4.0559 H       
  56 H56            4.3403    -9.0154     5.5886 H       
  57 H57           -0.5082   -11.3979     4.6827 H       
  58 H58           -0.3058   -10.0061     5.7737 H       
  59 H59           -1.3074    -9.8516     4.3104 H       
  60 H60            3.5572    -8.3330    -2.1602 H       
  61 H61            3.3765   -10.5778    -2.5500 H       
  62 H62            2.6413   -10.7984    -0.9370 H       
  63 H63            1.2714   -11.2458    -3.3033 H       
  64 H64            0.4639   -10.7441    -1.7847 H       
  65 H65            1.3763    -8.9809    -4.1244 H       
  66 H66           -0.2155    -8.9967    -3.2959 H       
  67 H67            0.6856    -7.9831    -1.3061 H       
  68 H68            1.6015    -7.1339    -2.5905 H       
@<TRIPOS>BOND
   1    1    2 1
   2    1    4 2
   3    1    5 1
   4    2    3 1
   5    2   39 1
   6    2   40 1
   7    3   14 1
   8    3   41 1
   9    3   42 1
  10    5   43 1
  11    6    7 1
  12    6   13 2
  13    6   14 am
  14    7    8 ar
  15    7   12 ar
  16    8    9 ar
  17    8   44 1
  18    9   10 ar
  19    9   45 1
  20   10   11 ar
  21   10   15 1
  22   11   12 ar
  23   11   46 1
  24   12   47 1
  25   14   48 1
  26   15   16 1
  27   15   34 1
  28   15   49 1
  29   16   17 1
  30   17   18 ar
  31   17   22 ar
  32   18   19 ar
  33   18   50 1
  34   19   20 ar
  35   19   33 1
  36   20   21 ar
  37   20   27 1
  38   21   22 ar
  39   21   32 1
  40   22   51 1
  41   23   24 2
  42   23   27 1
  43   23   52 1
  44   24   25 1
  45   25   26 2
  46   25   28 1
  47   26   27 1
  48   26   53 1
  49   28   29 1
  50   28   30 1
  51   28   31 1
  52   32   54 1
  53   32   55 1
  54   32   56 1
  55   33   57 1
  56   33   58 1
  57   33   59 1
  58   34   35 1
  59   34   38 1
  60   34   60 1
  61   35   36 1
  62   35   61 1
  63   35   62 1
  64   36   37 1
  65   36   63 1
  66   36   64 1
  67   37   38 1
  68   37   65 1
  69   37   66 1
  70   38   67 1
  71   38   68 1

#	End of record

