#	Name: ASD05303029
#	Creating user name:	WinNT
#	Creation time:	15. 06. 2019 20:58

#	Modifying user name:	WinNT
#	Modification time:	15. 06. 2019 20:58

#	Program:	/corina/corina34_cracker 3.40 0067  02.08.2006

@<TRIPOS>MOLECULE
ASD05303029
  43   46    0    0    0
SMALL
NO_CHARGES


@<TRIPOS>ATOM
   1 C1             0.1209     1.5310    -0.5325 C.ar    
   2 C2             0.0889     0.1511    -0.6049 C.ar    
   3 C3             1.2503    -0.5793    -0.4240 C.ar    
   4 C4             2.4426     0.0755    -0.1709 C.ar    
   5 C5             2.4793     1.4665    -0.1006 C.ar    
   6 C6             1.3108     2.1897    -0.2813 C.ar    
   7 O7             3.6481     2.1138     0.1393 O.3     
   8 N8             3.6306    -0.6531     0.0235 N.am    
   9 C9             4.7157     1.4225     0.6135 C.ar    
  10 C10            4.7349     0.0302     0.5655 C.ar    
  11 C11            5.8275    -0.6696     1.0459 C.ar    
  12 C12            6.9047     0.0169     1.5783 C.ar    
  13 C13            6.8881     1.3979     1.6296 C.ar    
  14 C14            5.7983     2.1016     1.1501 C.ar    
  15 C15            3.7080    -1.9597    -0.2976 C.2     
  16 O16            2.6924    -2.5974    -0.4991 O.2     
  17 N17            4.9109    -2.5596    -0.3953 N.am    
  18 H18            5.7224    -2.0310    -0.3397 H       
  19 C19            4.9930    -4.0099    -0.5856 C.3     
  20 C20            6.3168    -4.3607    -1.2677 C.3     
  21 C21            6.4025    -5.8753    -1.4664 C.3     
  22 C22            6.3288    -6.5730    -0.1067 C.3     
  23 C23            5.0049    -6.2222     0.5754 C.3     
  24 C24            4.9192    -4.7076     0.7741 C.3     
  25 H25           -0.7869     2.0978    -0.6771 H       
  26 H26           -0.8432    -0.3574    -0.8024 H       
  27 H27            1.2261    -1.6575    -0.4800 H       
  28 H28            1.3296     3.2682    -0.2264 H       
  29 H29            5.8394    -1.7488     1.0059 H       
  30 H30            7.7588    -0.5269     1.9543 H       
  31 H31            7.7301     1.9303     2.0470 H       
  32 H32            5.7914     3.1807     1.1925 H       
  33 H33            4.1634    -4.3419    -1.2098 H       
  34 H34            6.3693    -3.8636    -2.2363 H       
  35 H35            7.1464    -4.0286    -0.6435 H       
  36 H36            5.5729    -6.2073    -2.0906 H       
  37 H37            7.3456    -6.1252    -1.9523 H       
  38 H38            6.3898    -7.6520    -0.2483 H       
  39 H39            7.1583    -6.2409     0.5175 H       
  40 H40            4.1754    -6.5542    -0.0488 H       
  41 H41            4.9524    -6.7192     1.5441 H       
  42 H42            5.7488    -4.3755     1.3983 H       
  43 H43            3.9761    -4.4576     1.2601 H       
@<TRIPOS>BOND
   1    1    2 ar
   2    1    6 ar
   3    1   25 1
   4    2    3 ar
   5    2   26 1
   6    3    4 ar
   7    3   27 1
   8    4    5 ar
   9    4    8 1
  10    5    6 ar
  11    5    7 1
  12    6   28 1
  13    7    9 1
  14    8   10 1
  15    8   15 am
  16    9   10 ar
  17    9   14 ar
  18   10   11 ar
  19   11   12 ar
  20   11   29 1
  21   12   13 ar
  22   12   30 1
  23   13   14 ar
  24   13   31 1
  25   14   32 1
  26   15   16 2
  27   15   17 am
  28   17   18 1
  29   17   19 1
  30   19   20 1
  31   19   24 1
  32   19   33 1
  33   20   21 1
  34   20   34 1
  35   20   35 1
  36   21   22 1
  37   21   36 1
  38   21   37 1
  39   22   23 1
  40   22   38 1
  41   22   39 1
  42   23   24 1
  43   23   40 1
  44   23   41 1
  45   24   42 1
  46   24   43 1

#	End of record

