#	Name: ASD01814700
#	Creating user name:	WinNT
#	Creation time:	15. 06. 2019 19:32

#	Modifying user name:	WinNT
#	Modification time:	15. 06. 2019 19:32

#	Program:	/corina/corina34_cracker 3.40 0067  02.08.2006

@<TRIPOS>MOLECULE
ASD01814700
  37   40    0    0    0
SMALL
NO_CHARGES


@<TRIPOS>ATOM
   1 C1            -0.0166     1.3763     0.0096 C.ar    
   2 C2             1.1928     2.0965     0.0019 C.ar    
   3 N3             2.3743     1.4503    -0.0133 N.2     
   4 C4             2.4284     0.1493    -0.0209 C.2     
   5 C5             1.1930    -0.6418    -0.0134 C.2     
   6 N6             0.0021    -0.0041     0.0020 N.am    
   7 C7             1.1578     3.4993     0.0099 C.ar    
   8 C8            -0.0406     4.1512     0.0248 C.ar    
   9 C9            -1.2335     3.4406     0.0329 C.ar    
  10 C10           -1.2270     2.0627     0.0191 C.ar    
  11 O11            1.2404    -1.8586    -0.0208 O.2     
  12 C12           -1.2496    -0.7653     0.0104 C.3     
  13 C13           -1.6929    -1.0187    -1.4075 C.ar    
  14 C14           -1.2733    -2.1586    -2.0684 C.ar    
  15 C15           -1.6775    -2.3933    -3.3680 C.ar    
  16 C16           -2.5064    -1.4837    -4.0108 C.ar    
  17 C17           -2.9264    -0.3403    -3.3445 C.ar    
  18 C18           -2.5230    -0.1137    -2.0431 C.ar    
  19 N19           -2.9180    -1.7189    -5.3300 N.pl3   
  20 C20           -3.7200    -0.9186    -6.0682 C.2     
  21 C21           -3.8758    -1.4979    -7.2811 C.2     
  22 C22           -3.1455    -2.6914    -7.2855 C.2     
  23 N23           -2.5664    -2.8217    -6.1191 N.2     
  24 H24            3.3864    -0.3493    -0.0331 H       
  25 H25            2.0792     4.0626     0.0044 H       
  26 H26           -0.0617     5.2310     0.0309 H       
  27 H27           -2.1737     3.9719     0.0454 H       
  28 H28           -2.1589     1.5168     0.0201 H       
  29 H29           -1.0925    -1.7172     0.5176 H       
  30 H30           -2.0173    -0.1964     0.5349 H       
  31 H31           -0.6285    -2.8658    -1.5679 H       
  32 H32           -1.3489    -3.2834    -3.8839 H       
  33 H33           -3.5709     0.3693    -3.8420 H       
  34 H34           -2.8527     0.7735    -1.5229 H       
  35 H35           -4.1580     0.0149    -5.7471 H       
  36 H36           -4.4606    -1.1079    -8.1011 H       
  37 H37           -3.0691    -3.3836    -8.1110 H       
@<TRIPOS>BOND
   1    1    6 1
   2    1    2 ar
   3    1   10 ar
   4    2    3 1
   5    2    7 ar
   6    3    4 2
   7    4    5 1
   8    4   24 1
   9    5    6 am
  10    5   11 2
  11    6   12 1
  12    7    8 ar
  13    7   25 1
  14    8    9 ar
  15    8   26 1
  16    9   10 ar
  17    9   27 1
  18   10   28 1
  19   12   13 1
  20   12   29 1
  21   12   30 1
  22   13   14 ar
  23   13   18 ar
  24   14   15 ar
  25   14   31 1
  26   15   16 ar
  27   15   32 1
  28   16   17 ar
  29   16   19 1
  30   17   18 ar
  31   17   33 1
  32   18   34 1
  33   19   20 1
  34   19   23 1
  35   20   21 2
  36   20   35 1
  37   21   22 1
  38   21   36 1
  39   22   23 2
  40   22   37 1

#	End of record

