#	Name: ASD01811396
#	Creating user name:	WinNT
#	Creation time:	15. 06. 2019 19:26

#	Modifying user name:	WinNT
#	Modification time:	15. 06. 2019 19:26

#	Program:	/corina/corina34_cracker 3.40 0067  02.08.2006

@<TRIPOS>MOLECULE
ASD01811396
  20   20    0    0    0
SMALL
NO_CHARGES


@<TRIPOS>ATOM
   1 N1            -0.0153     1.2805     0.0091 N.pl3   
   2 N2             0.0021    -0.0041     0.0020 N.2     
   3 C3             1.2466    -0.4395    -0.0122 C.2     
   4 C4             2.0833     0.7022    -0.0141 C.2     
   5 C5             1.2452     1.7649    -0.0004 C.2     
   6 C6             1.6839    -1.8490    -0.0239 C.2     
   7 O7             2.8687    -2.1173    -0.0363 O.2     
   8 O8             0.7692    -2.8382    -0.0210 O.3     
   9 N9             1.6373     3.1922     0.0031 N.pl3   
  10 O10            0.7815     4.0588     0.0156 O.2     
  11 O11            2.8157     3.5001    -0.0064 O.2     
  12 C12           -1.2284     2.1018     0.0195 C.3     
  13 C13            1.2714    -4.2005    -0.0331 C.3     
  14 H14            3.1631     0.7213    -0.0240 H       
  15 H15           -1.5239     2.3003     1.0498 H       
  16 H16           -1.0329     3.0451    -0.4905 H       
  17 H17           -2.0309     1.5712    -0.4929 H       
  18 H18            1.8873    -4.3685     0.8504 H       
  19 H19            0.4329    -4.8969    -0.0293 H       
  20 H20            1.8711    -4.3587    -0.9295 H       
@<TRIPOS>BOND
   1    1    2 1
   2    1    5 1
   3    1   12 1
   4    2    3 2
   5    3    4 1
   6    3    6 1
   7    4    5 2
   8    4   14 1
   9    5    9 1
  10    6    7 2
  11    6    8 1
  12    8   13 1
  13    9   10 2
  14    9   11 2
  15   12   15 1
  16   12   16 1
  17   12   17 1
  18   13   18 1
  19   13   19 1
  20   13   20 1

#	End of record

