#	Name: ASD01230722
#	Creating user name:	WinNT
#	Creation time:	15. 06. 2019 19:14

#	Modifying user name:	WinNT
#	Modification time:	15. 06. 2019 19:14

#	Program:	/corina/corina34_cracker 3.40 0067  02.08.2006

@<TRIPOS>MOLECULE
ASD01230722
  49   52    0    0    0
SMALL
NO_CHARGES


@<TRIPOS>ATOM
   1 C1             0.3105     1.1809    -1.5026 C.3     
   2 N2             0.4134    -0.2833    -1.5008 N.am    
   3 C3             0.0113    -1.0436    -0.3129 C.3     
   4 C4             0.1564    -0.1619     0.9325 C.3     
   5 N5            -0.6733     1.0376     0.7502 N.pl3   
   6 C6            -0.7542     1.5905    -0.5002 C.2     
   7 C7            -1.3523     1.6351     1.8978 C.3     
   8 C8            -2.8315     1.8413     1.5694 C.3     
   9 S9            -2.9743     2.8206     0.0512 S.o2    
  10 N10           -1.6857     2.3815    -0.8742 N.am    
  11 C11            1.6350     1.7821    -1.1085 C.ar    
  12 C12            2.5798     1.0066    -0.4622 C.ar    
  13 O13           -4.1028     2.4026    -0.7044 O.2     
  14 O14           -2.7514     4.1969     0.3260 O.2     
  15 C15            1.9054     3.1066    -1.3990 C.ar    
  16 C16            3.1187     3.6601    -1.0389 C.ar    
  17 C17            4.0665     2.8857    -0.3851 C.ar    
  18 C18            3.7947     1.5552    -0.0998 C.ar    
  19 O19            5.2608     3.4278    -0.0297 O.3     
  20 C20            5.4449     4.7578    -0.2383 C.ar    
  21 C21            4.9795     5.6779     0.6902 C.ar    
  22 C22            0.8767    -0.9283    -2.5897 C.2     
  23 C23            6.1038     5.1980    -1.3774 C.ar    
  24 C24            6.2897     6.5507    -1.5870 C.ar    
  25 C25            5.8199     7.4657    -0.6630 C.ar    
  26 C26            5.1680     7.0295     0.4758 C.ar    
  27 C27            0.9820    -2.4316    -2.5870 C.3     
  28 O28            1.2087    -0.2989    -3.5719 O.2     
  29 H29            0.0328     1.5272    -2.4981 H       
  30 H30           -1.0275    -1.3572    -0.4169 H       
  31 H31            0.6476    -1.9227    -0.2117 H       
  32 H32           -0.1800    -0.7108     1.8121 H       
  33 H33            1.1995     0.1286     1.0571 H       
  34 H34           -1.2606     0.9730     2.7588 H       
  35 H35           -0.8947     2.5968     2.1299 H       
  36 H36           -3.3107     0.8731     1.4245 H       
  37 H37           -3.3166     2.3694     2.3903 H       
  38 H38            2.3677    -0.0288    -0.2401 H       
  39 H39            1.1675     3.7088    -1.9082 H       
  40 H40            3.3296     4.6946    -1.2663 H       
  41 H41            4.5307     0.9503     0.4089 H       
  42 H42            4.4700     5.3377     1.5796 H       
  43 H43            6.4712     4.4837    -2.0993 H       
  44 H44            6.8027     6.8938    -2.4733 H       
  45 H45            5.9662     8.5228    -0.8288 H       
  46 H46            4.8017     7.7462     1.1958 H       
  47 H47            0.0500    -2.8618    -2.9535 H       
  48 H48            1.8034    -2.7394    -3.2340 H       
  49 H49            1.1689    -2.7809    -1.5715 H       
@<TRIPOS>BOND
   1    1    2 1
   2    1   11 1
   3    1    6 1
   4    1   29 1
   5    2    3 1
   6    2   22 am
   7    3    4 1
   8    3   30 1
   9    3   31 1
  10    4    5 1
  11    4   32 1
  12    4   33 1
  13    5    6 1
  14    5    7 1
  15    6   10 2
  16    7    8 1
  17    7   34 1
  18    7   35 1
  19    8    9 1
  20    8   36 1
  21    8   37 1
  22    9   10 am
  23    9   13 2
  24    9   14 2
  25   11   12 ar
  26   11   15 ar
  27   12   18 ar
  28   12   38 1
  29   15   16 ar
  30   15   39 1
  31   16   17 ar
  32   16   40 1
  33   17   18 ar
  34   17   19 1
  35   18   41 1
  36   19   20 1
  37   20   21 ar
  38   20   23 ar
  39   21   26 ar
  40   21   42 1
  41   22   27 1
  42   22   28 2
  43   23   24 ar
  44   23   43 1
  45   24   25 ar
  46   24   44 1
  47   25   26 ar
  48   25   45 1
  49   26   46 1
  50   27   47 1
  51   27   48 1
  52   27   49 1

#	End of record

