#	Name: ASD07270003
#	Creating user name:	WinNT
#	Creation time:	15. 06. 2019 21:09

#	Modifying user name:	WinNT
#	Modification time:	15. 06. 2019 21:09

#	Program:	/corina/corina34_cracker 3.40 0067  02.08.2006

@<TRIPOS>MOLECULE
ASD07270003
  41   44    0    0    0
SMALL
NO_CHARGES


@<TRIPOS>ATOM
   1 C1            -0.0178     1.4644     0.0101 C.2     
   2 C2             0.0021    -0.0041     0.0020 C.ar    
   3 C3            -1.1992    -0.7224     0.0096 C.ar    
   4 C4            -1.1777    -2.0994     0.0021 C.ar    
   5 C5             0.0336    -2.7785    -0.0126 C.ar    
   6 C6             1.2355    -2.0698    -0.0203 C.ar    
   7 C7             1.2233    -0.6899    -0.0191 C.ar    
   8 O8             1.0242     2.0851     0.0035 O.2     
   9 C9            -1.3330     2.2001     0.0203 C.3     
  10 N10           -1.0849     3.6439     0.0270 N.pl3   
  11 C11           -0.9515     4.4570    -1.0800 C.ar    
  12 C12           -0.7261     5.7556    -0.5884 C.ar    
  13 N13           -0.7321     5.6777     0.7637 N.2     
  14 C14           -0.9480     4.4395     1.1324 C.2     
  15 C15           -0.9973     4.2359    -2.4500 C.ar    
  16 C16           -0.8213     5.2916    -3.3189 C.ar    
  17 C17           -0.5985     6.5730    -2.8338 C.ar    
  18 C18           -0.5504     6.8110    -1.4901 C.ar    
  19 C19           -1.0232     3.9695     2.5338 C.ar    
  20 C20           -0.8572     4.8783     3.5777 C.ar    
  21 C21           -0.9307     4.4235     4.8835 C.ar    
  22 C22           -1.1680     3.0745     5.1024 C.ar    
  23 C23           -1.3233     2.2277     4.0186 C.ar    
  24 N24           -1.2538     2.6865     2.7867 N.ar    
  25 O25            2.4193    -2.7391    -0.0347 O.3     
  26 O26            0.0484    -4.1359    -0.0191 O.3     
  27 H27           -2.1427    -0.1970     0.0218 H       
  28 H28           -2.1052    -2.6526     0.0080 H       
  29 H29            2.1529    -0.1402    -0.0254 H       
  30 H30           -1.9052     1.9339    -0.8684 H       
  31 H31           -1.8967     1.9242     0.9115 H       
  32 H32           -1.1696     3.2410    -2.8333 H       
  33 H33           -0.8568     5.1204    -4.3846 H       
  34 H34           -0.4620     7.3903    -3.5265 H       
  35 H35           -0.3764     7.8120    -1.1239 H       
  36 H36           -0.6734     5.9223     3.3709 H       
  37 H37           -0.8058     5.1038     5.7130 H       
  38 H38           -1.2306     2.6884     6.1091 H       
  39 H39           -1.5081     1.1769     4.1860 H       
  40 H40            2.7534    -2.9282    -0.9222 H       
  41 H41            0.0443    -4.5250    -0.9043 H       
@<TRIPOS>BOND
   1    1    2 1
   2    1    8 2
   3    1    9 1
   4    2    3 ar
   5    2    7 ar
   6    3    4 ar
   7    3   27 1
   8    4    5 ar
   9    4   28 1
  10    5    6 ar
  11    5   26 1
  12    6    7 ar
  13    6   25 1
  14    7   29 1
  15    9   10 1
  16    9   30 1
  17    9   31 1
  18   10   11 1
  19   10   14 1
  20   11   12 ar
  21   11   15 ar
  22   12   13 1
  23   12   18 ar
  24   13   14 2
  25   14   19 1
  26   15   16 ar
  27   15   32 1
  28   16   17 ar
  29   16   33 1
  30   17   18 ar
  31   17   34 1
  32   18   35 1
  33   19   20 ar
  34   19   24 ar
  35   20   21 ar
  36   20   36 1
  37   21   22 ar
  38   21   37 1
  39   22   23 ar
  40   22   38 1
  41   23   24 ar
  42   23   39 1
  43   25   40 1
  44   26   41 1

#	End of record

