#	Name: ASD01478059
#	Creating user name:	WinNT
#	Creation time:	15. 06. 2019 19:21

#	Modifying user name:	WinNT
#	Modification time:	15. 06. 2019 19:21

#	Program:	/corina/corina34_cracker 3.40 0067  02.08.2006

@<TRIPOS>MOLECULE
ASD01478059
  38   37    0    0    0
SMALL
NO_CHARGES


@<TRIPOS>ATOM
   1 C1             0.2491     1.4509     0.1352 C.3     
   2 C2             1.7237     1.8095    -0.0591 C.3     
   3 C3             2.5555     1.1681     1.0534 C.3     
   4 C4             3.9871     1.6240     0.9367 C.2     
   5 C5             4.5688     2.2210     1.9473 C.2     
   6 O6             2.1689     1.3237    -1.3272 O.3     
   7 C7             1.9282     2.2231    -2.4112 C.3     
   8 O8             2.8615     3.3035    -2.3500 O.3     
   9 C9             4.1832     2.9541    -2.7659 C.3     
  10 C10            5.0922     4.1802    -2.6598 C.3     
  11 O11            5.2162     4.5640    -1.2889 O.3     
  12 C12            6.0492     5.7058    -1.0780 C.3     
  13 O13            0.1094     0.0304     0.2043 O.3     
  14 C14           -1.2368    -0.4131     0.3860 C.3     
  15 C15           -1.2661    -1.9187     0.4447 C.2     
  16 C16           -1.9771    -2.5247     1.3630 C.2     
  17 H17           -0.1144     1.8972     1.0609 H       
  18 H18           -0.3315     1.8326    -0.7046 H       
  19 H19            1.8421     2.8924    -0.0230 H       
  20 H20            2.1570     1.4666     2.0230 H       
  21 H21            2.5110     0.0830     0.9607 H       
  22 H22            4.5335     1.4586     0.0199 H       
  23 H23            4.0224     2.3864     2.8641 H       
  24 H24            5.5948     2.5478     1.8637 H       
  25 H25            2.0473     1.6932    -3.3563 H       
  26 H26            0.9136     2.6150    -2.3398 H       
  27 H27            4.5677     2.1603    -2.1255 H       
  28 H28            4.1594     2.6078    -3.7992 H       
  29 H29            6.0768     3.9383    -3.0599 H       
  30 H30            4.6604     5.0030    -3.2297 H       
  31 H31            5.6374     6.5602    -1.6151 H       
  32 H32            6.0920     5.9326    -0.0127 H       
  33 H33            7.0537     5.4955    -1.4453 H       
  34 H34           -1.6312    -0.0055     1.3169 H       
  35 H35           -1.8482    -0.0701    -0.4486 H       
  36 H36           -0.7009    -2.4981    -0.2704 H       
  37 H37           -2.5423    -1.9453     2.0781 H       
  38 H38           -1.9981    -3.6037     1.4050 H       
@<TRIPOS>BOND
   1    1   13 1
   2    1    2 1
   3    1   17 1
   4    1   18 1
   5    2    3 1
   6    2    6 1
   7    2   19 1
   8    3    4 1
   9    3   20 1
  10    3   21 1
  11    4    5 2
  12    4   22 1
  13    5   23 1
  14    5   24 1
  15    6    7 1
  16    7    8 1
  17    7   25 1
  18    7   26 1
  19    8    9 1
  20    9   10 1
  21    9   27 1
  22    9   28 1
  23   10   11 1
  24   10   29 1
  25   10   30 1
  26   11   12 1
  27   12   31 1
  28   12   32 1
  29   12   33 1
  30   13   14 1
  31   14   15 1
  32   14   34 1
  33   14   35 1
  34   15   16 2
  35   15   36 1
  36   16   37 1
  37   16   38 1

#	End of record

