#	Name: ASD02038165
#	Creating user name:	WinNT
#	Creation time:	15. 06. 2019 20:16

#	Modifying user name:	WinNT
#	Modification time:	15. 06. 2019 20:16

#	Program:	/corina/corina34_cracker 3.40 0067  02.08.2006

@<TRIPOS>MOLECULE
ASD02038165
  56   58    0    0    0
SMALL
NO_CHARGES


@<TRIPOS>ATOM
   1 C1            -0.5095     1.6542     0.6610 C.3     
   2 C2            -0.5338     0.1250     0.6021 C.3     
   3 N3             0.5599    -0.4117     1.4239 N.3     
   4 C4             0.5242    -1.8800     1.4540 C.3     
   5 C5             1.3728    -2.3870     2.6218 C.3     
   6 O6             2.7498    -2.0998     2.3698 O.3     
   7 C7             1.1858    -3.8983     2.7697 C.3     
   8 O8             1.8853    -4.3535     3.9297 O.3     
   9 C9             1.8208    -5.6830     4.2073 C.ar    
  10 C10            2.4770    -6.1919     5.3185 C.ar    
  11 C11            1.0940    -6.5290     3.3825 C.ar    
  12 C12            1.0273    -7.8793     3.6645 C.ar    
  13 C13            1.6882    -8.3900     4.7734 C.ar    
  14 C14            2.4119    -7.5421     5.6010 C.ar    
  15 N15            1.6205    -9.7601     5.0604 N.am    
  16 C16            1.8617     0.0737     0.9450 C.3     
  17 C17            1.8860     1.6029     1.0038 C.3     
  18 N18            0.7923     2.1396     0.1821 N.3     
  19 C19            0.8263     3.5363     0.1534 C.ar    
  20 C20            0.7958     4.2575     1.3401 C.ar    
  21 C21            0.8295     5.6378     1.3088 C.ar    
  22 C22            0.8936     6.3024     0.0967 C.ar    
  23 C23            0.9237     5.5864    -1.0871 C.ar    
  24 C24            0.8965     4.2058    -1.0615 C.ar    
  25 C25            1.5845   -10.6580     4.0559 C.2     
  26 N26            1.4402   -11.9698     4.3295 N.am    
  27 O27            1.6821   -10.2846     2.9029 O.2     
  28 Cl28           0.9358     8.0375     0.0612 Cl      
  29 C29           -1.8729    -0.3852     1.1383 C.3     
  30 H30           -1.3020     2.0551     0.0290 H       
  31 H31           -0.6636     1.9810     1.6893 H       
  32 H32           -0.4069    -0.2013    -0.4301 H       
  33 H33           -0.5051    -2.2158     1.5802 H       
  34 H34            0.9223    -2.2724     0.5183 H       
  35 H35            1.0603    -1.8905     3.5405 H       
  36 H36            3.0965    -2.5102     1.5658 H       
  37 H37            0.1246    -4.1247     2.8732 H       
  38 H38            1.5803    -4.4013     1.8868 H       
  39 H39            3.0393    -5.5321     5.9626 H       
  40 H40            0.5799    -6.1316     2.5199 H       
  41 H41            0.4609    -8.5377     3.0226 H       
  42 H42            2.9262    -7.9388     6.4638 H       
  43 H43            1.5997   -10.0622     5.9819 H       
  44 H44            2.6542    -0.3272     1.5770 H       
  45 H45            2.0158    -0.2532    -0.0833 H       
  46 H46            1.7592     1.9292     2.0361 H       
  47 H47            2.8400     1.9663     0.6219 H       
  48 H48            0.7454     3.7393     2.2864 H       
  49 H49            0.8054     6.1991     2.2312 H       
  50 H50            0.9730     6.1076    -2.0317 H       
  51 H51            0.9203     3.6475    -1.9857 H       
  52 H52            1.3623   -12.2677     5.2494 H       
  53 H53            1.4142   -12.6161     3.6066 H       
  54 H54           -2.6840     0.0146     0.5298 H       
  55 H55           -1.8899    -1.4743     1.0963 H       
  56 H56           -1.9987    -0.0594     2.1709 H       
@<TRIPOS>BOND
   1    1    2 1
   2    1   18 1
   3    1   30 1
   4    1   31 1
   5    2    3 1
   6    2   29 1
   7    2   32 1
   8    3    4 1
   9    3   16 1
  10    4    5 1
  11    4   33 1
  12    4   34 1
  13    5    6 1
  14    5    7 1
  15    5   35 1
  16    6   36 1
  17    7    8 1
  18    7   37 1
  19    7   38 1
  20    8    9 1
  21    9   10 ar
  22    9   11 ar
  23   10   14 ar
  24   10   39 1
  25   11   12 ar
  26   11   40 1
  27   12   13 ar
  28   12   41 1
  29   13   14 ar
  30   13   15 1
  31   14   42 1
  32   15   25 am
  33   15   43 1
  34   16   17 1
  35   16   44 1
  36   16   45 1
  37   17   18 1
  38   17   46 1
  39   17   47 1
  40   18   19 1
  41   19   20 ar
  42   19   24 ar
  43   20   21 ar
  44   20   48 1
  45   21   22 ar
  46   21   49 1
  47   22   23 ar
  48   22   28 1
  49   23   24 ar
  50   23   50 1
  51   24   51 1
  52   25   26 am
  53   25   27 2
  54   26   52 1
  55   26   53 1
  56   29   54 1
  57   29   55 1
  58   29   56 1

#	End of record

