#	Name: ASD01910488
#	Creating user name:	WinNT
#	Creation time:	15. 06. 2019 19:55

#	Modifying user name:	WinNT
#	Modification time:	15. 06. 2019 19:55

#	Program:	/corina/corina34_cracker 3.40 0067  02.08.2006

@<TRIPOS>MOLECULE
ASD01910488
  43   46    0    0    0
SMALL
NO_CHARGES


@<TRIPOS>ATOM
   1 C1             1.7975     0.3921    -0.5072 C.ar    
   2 C2             1.5990    -1.0014    -0.0396 C.2     
   3 N3             0.5640    -1.8137    -0.3527 N.2     
   4 C4             0.7973    -2.9389     0.2756 C.2     
   5 O5             1.9458    -2.7868     0.9424 O.3     
   6 N6             2.3951    -1.6770     0.7483 N.2     
   7 C7            -0.0670    -4.1732     0.2517 C.3     
   8 C8             0.7365    -5.3486    -0.3096 C.3     
   9 C9            -0.1503    -6.5947    -0.3649 C.3     
  10 C10           -0.6075    -6.9544     1.0523 C.3     
  11 N11           -1.2542    -5.7798     1.6530 N.am    
  12 C12           -0.5233    -4.5055     1.6759 C.3     
  13 C13           -2.4942    -5.8697     2.1732 C.2     
  14 C14           -3.2631    -7.1195     2.0342 C.2     
  15 O15           -2.9789    -4.9195     2.7574 O.2     
  16 C16            2.9202     1.1142    -0.0998 C.ar    
  17 C17            3.1001     2.4125    -0.5393 C.ar    
  18 C18            2.1683     2.9951    -1.3818 C.ar    
  19 C19            1.0519     2.2807    -1.7879 C.ar    
  20 C20            0.8663     0.9829    -1.3596 C.ar    
  21 F21            3.8290     0.5457     0.7226 F       
  22 F22            2.3477     4.2641    -1.8091 F       
  23 C23           -3.4019    -7.9841     0.8521 C.2     
  24 N24           -4.1764    -8.9583     1.2279 N.2     
  25 O25           -4.5222    -8.8505     2.3788 O.3     
  26 C26           -4.0218    -7.7677     2.9781 C.2     
  27 C27           -4.2525    -7.3362     4.4034 C.3     
  28 H28           -0.9387    -3.9948    -0.3778 H       
  29 H29            1.0832    -5.1048    -1.3138 H       
  30 H30            1.5948    -5.5419     0.3338 H       
  31 H31           -1.0216    -6.3938    -0.9883 H       
  32 H32            0.4156    -7.4255    -0.7865 H       
  33 H33           -1.3177    -7.7801     1.0085 H       
  34 H34            0.2554    -7.2434     1.6523 H       
  35 H35            0.3465    -4.5947     2.3268 H       
  36 H36           -1.1779    -3.7153     2.0435 H       
  37 H37            3.9680     2.9730    -0.2249 H       
  38 H38            0.3278     2.7401    -2.4445 H       
  39 H39           -0.0041     0.4281    -1.6772 H       
  40 H40           -2.9556    -7.8401    -0.1208 H       
  41 H41           -4.9076    -8.0530     4.8985 H       
  42 H42           -3.2985    -7.2927     4.9288 H       
  43 H43           -4.7183    -6.3508     4.4138 H       
@<TRIPOS>BOND
   1    1    2 1
   2    1   16 ar
   3    1   20 ar
   4    2    3 1
   5    2    6 2
   6    3    4 2
   7    4    5 1
   8    4    7 1
   9    5    6 1
  10    7    8 1
  11    7   12 1
  12    7   28 1
  13    8    9 1
  14    8   29 1
  15    8   30 1
  16    9   10 1
  17    9   31 1
  18    9   32 1
  19   10   11 1
  20   10   33 1
  21   10   34 1
  22   11   12 1
  23   11   13 am
  24   12   35 1
  25   12   36 1
  26   13   14 1
  27   13   15 2
  28   14   23 1
  29   14   26 2
  30   16   17 ar
  31   16   21 1
  32   17   18 ar
  33   17   37 1
  34   18   19 ar
  35   18   22 1
  36   19   20 ar
  37   19   38 1
  38   20   39 1
  39   23   24 2
  40   23   40 1
  41   24   25 1
  42   25   26 1
  43   26   27 1
  44   27   41 1
  45   27   42 1
  46   27   43 1

#	End of record

