#	Name: ASD01028805
#	Creating user name:	WinNT
#	Creation time:	15. 06. 2019 18:58

#	Modifying user name:	WinNT
#	Modification time:	15. 06. 2019 18:58

#	Program:	/corina/corina34_cracker 3.40 0067  02.08.2006

@<TRIPOS>MOLECULE
ASD01028805
  38   39    0    0    0
SMALL
NO_CHARGES


@<TRIPOS>ATOM
   1 C1            -0.0184     1.5028     0.0103 C.2     
   2 C2             0.0021    -0.0041     0.0020 C.3     
   3 O3             1.0197     2.1211     0.0037 O.2     
   4 O4            -1.1898     2.1580     0.0194 O.3     
   5 N5             5.3469    -1.8129    -0.0716 N.2     
   6 C6             5.9868    -2.0308     1.0370 C.2     
   7 N7             5.4372    -1.8465     2.2656 N.am    
   8 C8             4.1607    -1.4147     2.3917 C.2     
   9 C9             3.4077    -1.1583     1.1550 C.ar    
  10 C10            2.0878    -0.7123     1.1748 C.ar    
  11 C11            1.4295    -0.4870    -0.0142 C.ar    
  12 C12            2.0699    -0.7016    -1.2278 C.ar    
  13 C13            3.3733    -1.1430    -1.2691 C.ar    
  14 C14            4.0620    -1.3781    -0.0773 C.ar    
  15 O15            3.6555    -1.2457     3.4862 O.2     
  16 C16            6.2334    -2.1179     3.4651 C.3     
  17 C17           -1.1335     3.6089     0.0270 C.3     
  18 C18           -0.3989     4.0974    -1.2231 C.3     
  19 C19           -2.5551     4.1744     0.0369 C.3     
  20 C20           -0.3871     4.0838     1.2754 C.3     
  21 H21           -0.4983    -0.3791     0.8948 H       
  22 H22           -0.5153    -0.3696    -0.8850 H       
  23 H23            7.0083    -2.3768     0.9793 H       
  24 H24            1.5844    -0.5444     2.1155 H       
  25 H25            1.5388    -0.5203    -2.1505 H       
  26 H26            3.8609    -1.3063    -2.2188 H       
  27 H27            7.2280    -2.4544     3.1725 H       
  28 H28            6.3178    -1.2078     4.0588 H       
  29 H29            5.7468    -2.8936     4.0563 H       
  30 H30           -0.9307     3.7591    -2.1124 H       
  31 H31           -0.3567     5.1865    -1.2173 H       
  32 H32            0.6139     3.6945    -1.2301 H       
  33 H33           -3.0784     3.8265     0.9275 H       
  34 H34           -2.5128     5.2636     0.0426 H       
  35 H35           -3.0869     3.8361    -0.8525 H       
  36 H36            0.6257     3.6809     1.2684 H       
  37 H37           -0.3448     5.1730     1.2811 H       
  38 H38           -0.9104     3.7358     2.1659 H       
@<TRIPOS>BOND
   1    1    2 1
   2    1    3 2
   3    1    4 1
   4    2   11 1
   5    2   21 1
   6    2   22 1
   7    4   17 1
   8    5    6 2
   9    5   14 1
  10    6    7 1
  11    6   23 1
  12    7    8 am
  13    7   16 1
  14    8    9 1
  15    8   15 2
  16    9   10 ar
  17    9   14 ar
  18   10   11 ar
  19   10   24 1
  20   11   12 ar
  21   12   13 ar
  22   12   25 1
  23   13   14 ar
  24   13   26 1
  25   16   27 1
  26   16   28 1
  27   16   29 1
  28   17   18 1
  29   17   20 1
  30   17   19 1
  31   18   30 1
  32   18   31 1
  33   18   32 1
  34   19   33 1
  35   19   34 1
  36   19   35 1
  37   20   36 1
  38   20   37 1
  39   20   38 1

#	End of record

