#	Name: ASD04590184
#	Creating user name:	WinNT
#	Creation time:	15. 06. 2019 20:50

#	Modifying user name:	WinNT
#	Modification time:	15. 06. 2019 20:50

#	Program:	/corina/corina34_cracker 3.40 0067  02.08.2006

@<TRIPOS>MOLECULE
ASD04590184
  46   48    0    0    0
SMALL
NO_CHARGES


@<TRIPOS>ATOM
   1 N1             1.8963    -0.7893    -4.4887 N.pl3   
   2 N2             1.5334    -1.7456    -3.5340 N.2     
   3 C3             2.1927    -1.5106    -2.4276 C.2     
   4 C4             3.0138    -0.3748    -2.6438 C.2     
   5 C5             2.7967     0.0420    -3.9425 C.2     
   6 N6             2.1032    -2.2482    -1.2435 N.am    
   7 C7             1.2787    -3.3120    -1.1730 C.2     
   8 C8             3.9260     0.2437    -1.6675 C.2     
   9 N9             4.6496     1.3269    -2.0136 N.am    
  10 C10            5.5573     1.9423    -1.0422 C.3     
  11 C11            5.7650     3.4152    -1.4003 C.3     
  12 C12            6.7130     4.0579    -0.3859 C.3     
  13 C13            8.0592     3.3314    -0.4143 C.3     
  14 C14            7.8515     1.8585    -0.0562 C.3     
  15 C15            6.9035     1.2158    -1.0706 C.3     
  16 O16            4.0267    -0.2228    -0.5488 O.2     
  17 N17            1.1924    -4.0232    -0.0314 N.am    
  18 C18            0.2594    -5.0641     0.0772 C.ar    
  19 C19            0.5951    -6.3468    -0.3393 C.ar    
  20 O20            0.6127    -3.6302    -2.1394 O.2     
  21 O21            8.6252     3.4282    -1.7229 O.3     
  22 C22           -1.0014    -4.8171     0.6069 C.ar    
  23 C23           -1.9193    -5.8467     0.7125 C.ar    
  24 C24           -1.5835    -7.1204     0.2921 C.ar    
  25 C25           -0.3283    -7.3712    -0.2306 C.ar    
  26 F26            1.8213    -6.5928    -0.8502 F       
  27 F27           -1.3302    -3.5731     1.0187 F       
  28 H28            1.5565    -0.7383    -5.3958 H       
  29 H29            3.2666     0.8835    -4.4298 H       
  30 H30            2.6344    -1.9944    -0.4727 H       
  31 H31            4.5694     1.6989    -2.9058 H       
  32 H32            5.1256     1.8685    -0.0441 H       
  33 H33            6.1967     3.4891    -2.3985 H       
  34 H34            4.8060     3.9328    -1.3801 H       
  35 H35            6.8610     5.1073    -0.6410 H       
  36 H36            6.2813     3.9841     0.6123 H       
  37 H37            8.7345     3.7893     0.3084 H       
  38 H38            8.8105     1.3409    -0.0764 H       
  39 H39            7.4198     1.7846     0.9420 H       
  40 H40            6.7555     0.1664    -0.8155 H       
  41 H41            7.3352     1.2896    -2.0688 H       
  42 H42            1.7757    -3.8149     0.7150 H       
  43 H43            9.4816     2.9887    -1.8145 H       
  44 H44           -2.8994    -5.6555     1.1240 H       
  45 H45           -2.3021    -7.9223     0.3761 H       
  46 H46           -0.0695    -8.3674    -0.5579 H       
@<TRIPOS>BOND
   1    1    2 1
   2    1    5 1
   3    1   28 1
   4    2    3 2
   5    3    4 1
   6    3    6 1
   7    4    5 2
   8    4    8 1
   9    5   29 1
  10    6    7 am
  11    6   30 1
  12    7   17 am
  13    7   20 2
  14    8    9 am
  15    8   16 2
  16    9   10 1
  17    9   31 1
  18   10   11 1
  19   10   15 1
  20   10   32 1
  21   11   12 1
  22   11   33 1
  23   11   34 1
  24   12   13 1
  25   12   35 1
  26   12   36 1
  27   13   14 1
  28   13   21 1
  29   13   37 1
  30   14   15 1
  31   14   38 1
  32   14   39 1
  33   15   40 1
  34   15   41 1
  35   17   18 1
  36   17   42 1
  37   18   19 ar
  38   18   22 ar
  39   19   26 1
  40   19   25 ar
  41   21   43 1
  42   22   23 ar
  43   22   27 1
  44   23   24 ar
  45   23   44 1
  46   24   25 ar
  47   24   45 1
  48   25   46 1

#	End of record

