#	Name: ASD07931049
#	Creating user name:	WinNT
#	Creation time:	15. 06. 2019 21:13

#	Modifying user name:	WinNT
#	Modification time:	15. 06. 2019 21:13

#	Program:	/corina/corina34_cracker 3.40 0067  02.08.2006

@<TRIPOS>MOLECULE
ASD07931049
  44   46    0    0    0
SMALL
NO_CHARGES


@<TRIPOS>ATOM
   1 N1            -0.0161     1.3365     0.0094 N.pl3   
   2 C2             0.0021    -0.0041     0.0020 C.2     
   3 C3             1.1793    -0.7228    -0.0131 C.2     
   4 C4             2.4585     0.0067    -0.0213 C.2     
   5 C5             2.3945     1.4796    -0.0128 C.ar    
   6 C6             3.5557     2.2520    -0.0192 C.ar    
   7 C7             3.4590     3.6263    -0.0105 C.ar    
   8 C8             2.2149     4.2401     0.0051 C.ar    
   9 C9             1.0595     3.4891     0.0121 C.ar    
  10 C10            1.1334     2.0990     0.0025 C.ar    
  11 C11            1.1574    -2.1921    -0.0203 C.2     
  12 O12            0.0956    -2.7842    -0.0130 O.2     
  13 O13            2.3147    -2.8834    -0.0350 O.3     
  14 S14            3.9570    -0.8208    -0.0395 S.2     
  15 C15            2.2171    -4.3321    -0.0414 C.3     
  16 C16            3.6008    -4.9288    -0.0579 C.ar    
  17 C17            4.2462    -5.2081     1.1326 C.ar    
  18 C18            5.5147    -5.7551     1.1202 C.ar    
  19 C19            6.1410    -6.0241    -0.0881 C.ar    
  20 C20            5.4913    -5.7429    -1.2812 C.ar    
  21 C21            4.2206    -5.2012    -1.2634 C.ar    
  22 O22            7.3891    -6.5617    -0.1030 O.3     
  23 C23            7.9724    -6.8122    -1.3833 C.3     
  24 C24           -1.3116     2.0204     0.0191 C.3     
  25 C25           -1.7559     2.2507     1.4650 C.3     
  26 H26           -0.9361    -0.5390     0.0085 H       
  27 H27            4.5249     1.7757    -0.0306 H       
  28 H28            4.3556     4.2284    -0.0154 H       
  29 H29            2.1512     5.3182     0.0122 H       
  30 H30            0.0970     3.9788     0.0249 H       
  31 H31            1.6887    -4.6646     0.8521 H       
  32 H32            1.6714    -4.6556    -0.9278 H       
  33 H33            3.7583    -4.9982     2.0730 H       
  34 H34            6.0185    -5.9727     2.0503 H       
  35 H35            5.9768    -5.9514    -2.2232 H       
  36 H36            3.7125    -4.9866    -2.1920 H       
  37 H37            8.9661    -7.2404    -1.2523 H       
  38 H38            7.3458    -7.5110    -1.9376 H       
  39 H39            8.0501    -5.8762    -1.9365 H       
  40 H40           -1.2198     2.9799    -0.4899 H       
  41 H41           -2.0508     1.4059    -0.4946 H       
  42 H42           -1.0167     2.8653     1.9787 H       
  43 H43           -2.7198     2.7596     1.4722 H       
  44 H44           -1.8477     1.2913     1.9740 H       
@<TRIPOS>BOND
   1    1    2 1
   2    1   10 1
   3    1   24 1
   4    2    3 2
   5    2   26 1
   6    3    4 1
   7    3   11 1
   8    4    5 1
   9    4   14 2
  10    5    6 ar
  11    5   10 ar
  12    6    7 ar
  13    6   27 1
  14    7    8 ar
  15    7   28 1
  16    8    9 ar
  17    8   29 1
  18    9   10 ar
  19    9   30 1
  20   11   12 2
  21   11   13 1
  22   13   15 1
  23   15   16 1
  24   15   31 1
  25   15   32 1
  26   16   17 ar
  27   16   21 ar
  28   17   18 ar
  29   17   33 1
  30   18   19 ar
  31   18   34 1
  32   19   20 ar
  33   19   22 1
  34   20   21 ar
  35   20   35 1
  36   21   36 1
  37   22   23 1
  38   23   37 1
  39   23   38 1
  40   23   39 1
  41   24   25 1
  42   24   40 1
  43   24   41 1
  44   25   42 1
  45   25   43 1
  46   25   44 1

#	End of record

