#	Name: ASD01915377
#	Creating user name:	WinNT
#	Creation time:	15. 06. 2019 20:05

#	Modifying user name:	WinNT
#	Modification time:	15. 06. 2019 20:05

#	Program:	/corina/corina34_cracker 3.40 0067  02.08.2006

@<TRIPOS>MOLECULE
ASD01915377
  47   50    0    0    0
SMALL
NO_CHARGES


@<TRIPOS>ATOM
   1 C1            -0.0168     1.3887     0.0097 C.ar    
   2 C2             0.0021    -0.0041     0.0020 C.ar    
   3 N3             1.1537    -0.6628    -0.0125 N.ar    
   4 C4             2.3101    -0.0318    -0.0202 C.ar    
   5 C5             2.3650     1.3500    -0.0128 C.ar    
   6 C6             1.1839     2.0778     0.0019 C.ar    
   7 C7             3.6951     2.0585    -0.0207 C.3     
   8 N8             4.7565     1.1342     0.4043 N.am    
   9 C9             5.7204     0.9811    -0.7006 C.3     
  10 C10            5.5644     2.2707    -1.5445 C.3     
  11 C11            4.0357     2.5195    -1.4536 C.3     
  12 C12            4.8356     0.5280     1.6054 C.2     
  13 O13            3.9807     0.7293     2.4451 O.2     
  14 C14            5.9651    -0.3840     1.9020 C.ar    
  15 C15           -1.2760    -0.7571     0.0107 C.ar    
  16 C16           -1.2666    -2.1503     0.0031 C.ar    
  17 C17           -2.4600    -2.8463     0.0117 C.ar    
  18 C18           -3.6628    -2.1616     0.0278 C.ar    
  19 C19           -3.6768    -0.7784     0.0349 C.ar    
  20 C20           -2.4904    -0.0735     0.0322 C.ar    
  21 Cl21          -2.4509    -4.5823     0.0017 Cl      
  22 C22            1.2075     3.5846     0.0103 C.3     
  23 C23            6.0411    -1.0075     3.1450 C.ar    
  24 C24            7.1035    -1.8584     3.4077 C.ar    
  25 C25            8.0527    -2.0559     2.4174 C.ar    
  26 C26            7.9137    -1.4024     1.2031 C.ar    
  27 N27            6.8931    -0.6043     0.9786 N.ar    
  28 H28           -0.9550     1.9236     0.0170 H       
  29 H29            3.2276    -0.6014    -0.0320 H       
  30 H30            3.6613     2.9175     0.6494 H       
  31 H31            6.7353     0.9033    -0.3107 H       
  32 H32            5.4749     0.1039    -1.2993 H       
  33 H33            6.1217     3.0966    -1.1025 H       
  34 H34            5.8721     2.1019    -2.5765 H       
  35 H35            3.5025     1.9175    -2.1894 H       
  36 H36            3.8089     3.5779    -1.5823 H       
  37 H37           -0.3283    -2.6850    -0.0098 H       
  38 H38           -4.5936    -2.7091     0.0345 H       
  39 H39           -4.6181    -0.2491     0.0468 H       
  40 H40           -2.5031     1.0065     0.0378 H       
  41 H41            1.2040     3.9537    -1.0153 H       
  42 H42            0.3280     3.9588     0.5341 H       
  43 H43            2.1077     3.9311     0.5180 H       
  44 H44            5.2834    -0.8302     3.8938 H       
  45 H45            7.1897    -2.3559     4.3624 H       
  46 H46            8.8927    -2.7123     2.5904 H       
  47 H47            8.6516    -1.5540     0.4291 H       
@<TRIPOS>BOND
   1    1    2 ar
   2    1    6 ar
   3    1   28 1
   4    2    3 ar
   5    2   15 1
   6    3    4 ar
   7    4    5 ar
   8    4   29 1
   9    5    6 ar
  10    5    7 1
  11    6   22 1
  12    7    8 1
  13    7   11 1
  14    7   30 1
  15    8    9 1
  16    8   12 am
  17    9   10 1
  18    9   31 1
  19    9   32 1
  20   10   11 1
  21   10   33 1
  22   10   34 1
  23   11   35 1
  24   11   36 1
  25   12   13 2
  26   12   14 1
  27   14   23 ar
  28   14   27 ar
  29   15   16 ar
  30   15   20 ar
  31   16   17 ar
  32   16   37 1
  33   17   18 ar
  34   17   21 1
  35   18   19 ar
  36   18   38 1
  37   19   20 ar
  38   19   39 1
  39   20   40 1
  40   22   41 1
  41   22   42 1
  42   22   43 1
  43   23   24 ar
  44   23   44 1
  45   24   25 ar
  46   24   45 1
  47   25   26 ar
  48   25   46 1
  49   26   27 ar
  50   26   47 1

#	End of record

