#	Name: ASD01208926
#	Creating user name:	WinNT
#	Creation time:	15. 06. 2019 19:10

#	Modifying user name:	WinNT
#	Modification time:	15. 06. 2019 19:10

#	Program:	/corina/corina34_cracker 3.40 0067  02.08.2006

@<TRIPOS>MOLECULE
ASD01208926
  58   61    0    0    0
SMALL
NO_CHARGES


@<TRIPOS>ATOM
   1 S1             0.3740     1.7078    -0.9055 S.3     
   2 C2             0.3054    -0.0309    -1.1670 C.2     
   3 N3             1.4556    -0.4513    -1.5868 N.2     
   4 C4             2.4008     0.4859    -1.7233 C.2     
   5 C5             2.0103     1.7392    -1.4003 C.2     
   6 C6             3.7591     0.1764    -2.1880 C.2     
   7 O7             4.5823     1.0649    -2.2947 O.2     
   8 O8             4.0934    -1.0930    -2.4965 O.3     
   9 C9            -1.9590    -0.2785    -0.5151 C.2     
  10 C10           -3.1472    -1.1285    -0.2897 C.ar    
  11 C11           -4.3377    -0.5605     0.1662 C.ar    
  12 C12           -5.4485    -1.3604     0.3761 C.ar    
  13 C13           -5.3791    -2.7249     0.1342 C.ar    
  14 C14           -4.1975    -3.2939    -0.3187 C.ar    
  15 C15           -3.0834    -2.4999    -0.5377 C.ar    
  16 O16           -2.0179     0.9170    -0.3032 O.2     
  17 N17           -0.8103    -0.8290    -0.9554 N.am    
  18 O18           -4.1347    -4.6309    -0.5536 O.3     
  19 C19           -3.5119    -5.4115     0.3669 C.ar    
  20 C20           -3.3803    -6.7761     0.1428 C.ar    
  21 C21           -2.7490    -7.5715     1.0745 C.ar    
  22 C22           -2.2410    -7.0039     2.2448 C.ar    
  23 C23           -2.3749    -5.6318     2.4662 C.ar    
  24 C24           -3.0032    -4.8423     1.5275 C.ar    
  25 O25           -1.0292    -7.4418     4.4137 O.3     
  26 C26           -1.5639    -7.8533     3.2465 C.2     
  27 N27           -1.3708    -9.1493     3.1659 N.2     
  28 N28           -0.7486    -9.5517     4.2178 N.2     
  29 C29           -0.5217    -8.5377     5.0048 C.2     
  30 C30            0.1826    -8.5850     6.3362 C.3     
  31 O31           -6.6082    -0.8082     0.8201 O.3     
  32 C32           -8.6108    -1.0522     2.1509 C.3     
  33 C33           -7.6770    -1.7048     1.1295 C.3     
  34 C34           -8.4597    -2.0247    -0.1456 C.3     
  35 O35           -9.2347     0.0913     1.5633 O.3     
  36 C36          -10.1320     0.7777     2.4384 C.3     
  37 Cl37           3.0110     3.1557    -1.4768 Cl      
  38 H38            4.9990    -1.2476    -2.7980 H       
  39 H39           -4.3924     0.5014     0.3555 H       
  40 H40           -6.2471    -3.3459     0.2993 H       
  41 H41           -2.1655    -2.9428    -0.8951 H       
  42 H42           -0.7633    -1.7830    -1.1245 H       
  43 H43           -3.7735    -7.2144    -0.7626 H       
  44 H44           -2.6476    -8.6324     0.8999 H       
  45 H45           -1.9836    -5.1893     3.3703 H       
  46 H46           -3.1038    -3.7803     1.6963 H       
  47 H47           -0.5469    -8.7594     7.1271 H       
  48 H48            0.9139    -9.3932     6.3319 H       
  49 H49            0.6901    -7.6366     6.5127 H       
  50 H50           -9.3752    -1.7678     2.4536 H       
  51 H51           -8.0356    -0.7439     3.0239 H       
  52 H52           -7.2695    -2.6258     1.5463 H       
  53 H53           -8.8673    -1.1037    -0.5624 H       
  54 H54           -7.7945    -2.4896    -0.8732 H       
  55 H55           -9.2750    -2.7086     0.0904 H       
  56 H56          -10.5640     1.6326     1.9183 H       
  57 H57          -10.9280     0.1000     2.7471 H       
  58 H58           -9.5884     1.1240     3.3175 H       
@<TRIPOS>BOND
   1    1    2 1
   2    1    5 1
   3    2    3 2
   4    2   17 1
   5    3    4 1
   6    4    5 2
   7    4    6 1
   8    5   37 1
   9    6    7 2
  10    6    8 1
  11    8   38 1
  12    9   10 1
  13    9   16 2
  14    9   17 am
  15   10   11 ar
  16   10   15 ar
  17   11   12 ar
  18   11   39 1
  19   12   13 ar
  20   12   31 1
  21   13   14 ar
  22   13   40 1
  23   14   15 ar
  24   14   18 1
  25   15   41 1
  26   17   42 1
  27   18   19 1
  28   19   20 ar
  29   19   24 ar
  30   20   21 ar
  31   20   43 1
  32   21   22 ar
  33   21   44 1
  34   22   23 ar
  35   22   26 1
  36   23   24 ar
  37   23   45 1
  38   24   46 1
  39   25   26 1
  40   25   29 1
  41   26   27 2
  42   27   28 1
  43   28   29 2
  44   29   30 1
  45   30   47 1
  46   30   48 1
  47   30   49 1
  48   31   33 1
  49   32   33 1
  50   32   35 1
  51   32   50 1
  52   32   51 1
  53   33   34 1
  54   33   52 1
  55   34   53 1
  56   34   54 1
  57   34   55 1
  58   35   36 1
  59   36   56 1
  60   36   57 1
  61   36   58 1

#	End of record

