#	Name: ASD00311060
#	Creating user name:	WinNT
#	Creation time:	15. 06. 2019 18:34

#	Modifying user name:	WinNT
#	Modification time:	15. 06. 2019 18:34

#	Program:	/corina/corina34_cracker 3.40 0067  02.08.2006

@<TRIPOS>MOLECULE
ASD00311060
  39   42    0    0    0
SMALL
NO_CHARGES


@<TRIPOS>ATOM
   1 C1            -0.0180     1.4733     0.0101 C.2     
   2 C2             0.0021    -0.0041     0.0020 C.ar    
   3 C3             1.2178    -0.6865    -0.0133 C.ar    
   4 C4             1.2276    -2.0782    -0.0203 C.ar    
   5 C5             0.0224    -2.7821    -0.0121 C.ar    
   6 C6            -1.1789    -2.1012     0.0025 C.ar    
   7 C7            -1.1968    -0.7207     0.0155 C.ar    
   8 O8             1.0256     2.0949     0.0035 O.2     
   9 O9            -1.1936     2.1309     0.0193 O.3     
  10 C10            4.1888    -4.2384     0.8218 C.2     
  11 C11            2.9582    -3.6602     1.0677 C.2     
  12 C12            2.2982    -3.9407     2.2994 C.2     
  13 C13            2.9030    -4.7849     3.2217 C.2     
  14 C14            4.1596    -5.3493     2.9221 C.2     
  15 N15            4.7654    -5.0733     1.7569 N.am    
  16 C16            2.5153    -2.8114    -0.0371 C.2     
  17 C17            3.3660    -2.7530    -1.0602 C.2     
  18 S18            4.7885    -3.7295    -0.7534 S.3     
  19 O19            4.6989    -6.0922     3.7260 O.2     
  20 C20            2.2343    -5.0889     4.5078 C.ar    
  21 C21            1.8140    -6.3890     4.7884 C.ar    
  22 C22            1.1921    -6.6660     5.9885 C.ar    
  23 C23            0.9850    -5.6575     6.9126 C.ar    
  24 C24            1.3992    -4.3660     6.6399 C.ar    
  25 C25            2.0274    -4.0775     5.4457 C.ar    
  26 O26            1.0921    -3.3884     2.5684 O.3     
  27 Cl27           3.1035    -1.8261    -2.5043 Cl      
  28 H28            2.1479    -0.1376    -0.0199 H       
  29 H29            0.0294    -3.8621    -0.0176 H       
  30 H30           -2.1084    -2.6510     0.0085 H       
  31 H31           -2.1395    -0.1939     0.0314 H       
  32 H32           -1.1561     3.0971     0.0244 H       
  33 H33            5.6297    -5.4707     1.5673 H       
  34 H34            1.9748    -7.1770     4.0676 H       
  35 H35            0.8659    -7.6722     6.2068 H       
  36 H36            0.4977    -5.8792     7.8505 H       
  37 H37            1.2341    -3.5827     7.3649 H       
  38 H38            2.3546    -3.0699     5.2359 H       
  39 H39            0.7274    -3.6396     3.4280 H       
@<TRIPOS>BOND
   1    1    2 1
   2    1    8 2
   3    1    9 1
   4    2    3 ar
   5    2    7 ar
   6    3    4 ar
   7    3   28 1
   8    4    5 ar
   9    4   16 1
  10    5    6 ar
  11    5   29 1
  12    6    7 ar
  13    6   30 1
  14    7   31 1
  15    9   32 1
  16   10   11 2
  17   10   15 1
  18   10   18 1
  19   11   12 1
  20   11   16 1
  21   12   13 2
  22   12   26 1
  23   13   14 1
  24   13   20 1
  25   14   15 am
  26   14   19 2
  27   15   33 1
  28   16   17 2
  29   17   18 1
  30   17   27 1
  31   20   21 ar
  32   20   25 ar
  33   21   22 ar
  34   21   34 1
  35   22   23 ar
  36   22   35 1
  37   23   24 ar
  38   23   36 1
  39   24   25 ar
  40   24   37 1
  41   25   38 1
  42   26   39 1

#	End of record

