#	Name: ASD02198131
#	Creating user name:	WinNT
#	Creation time:	15. 06. 2019 20:18

#	Modifying user name:	WinNT
#	Modification time:	15. 06. 2019 20:18

#	Program:	/corina/corina34_cracker 3.40 0067  02.08.2006

@<TRIPOS>MOLECULE
ASD02198131
  60   64    0    0    0
SMALL
NO_CHARGES


@<TRIPOS>ATOM
   1 C1             0.4441     1.3445    -0.3398 C.2     
   2 C2             0.1917    -0.0097    -0.2966 C.2     
   3 C3            -1.0954    -0.5543     0.0159 C.1     
   4 S4             2.0732     1.6464    -0.7420 S.3     
   5 C5             2.4314    -0.0692    -0.8565 C.2     
   6 C6             1.3019    -0.8014    -0.5853 C.2     
   7 C7             3.6914    -0.6137    -1.1794 C.2     
   8 C8             4.7961     0.2753    -1.5931 C.2     
   9 O9             3.8690    -1.8186    -1.1172 O.2     
  10 N10            1.2694    -2.1879    -0.5965 N.pl3   
  11 N11           -0.4946     2.3223    -0.0966 N.pl3   
  12 N12           -2.1164    -0.9863     0.2638 N.1     
  13 C13            4.7111     1.6664    -1.8226 C.2     
  14 C14           -0.1094     3.6587    -0.0422 C.ar    
  15 C15           -0.9621     4.6476    -0.5248 C.ar    
  16 N16            5.8944     2.0930    -2.1707 N.2     
  17 N17            6.7814     1.0106    -2.1806 N.pl3   
  18 C18            6.1045    -0.0971    -1.8214 C.2     
  19 C19            8.1437     1.0700    -2.5040 C.ar    
  20 C20            8.5889     1.9502    -3.4812 C.ar    
  21 C21            6.6704    -1.4886    -1.7001 C.3     
  22 C22           -0.5841     5.9698    -0.4723 C.ar    
  23 C23            0.6573     6.3195     0.0667 C.ar    
  24 C24            1.5111     5.3242     0.5509 C.ar    
  25 C25            1.1253     4.0041     0.5001 C.ar    
  26 C26            9.0517     0.2530    -1.8438 C.ar    
  27 C27           10.3938     0.3142    -2.1645 C.ar    
  28 C28           10.8335     1.1884    -3.1416 C.ar    
  29 C29            9.9322     2.0068    -3.7974 C.ar    
  30 C30            1.0659     7.7361     0.1240 C.2     
  31 N31            2.2632     8.0717     0.6439 N.am    
  32 O32            0.3224     8.6008    -0.2980 O.2     
  33 C33            2.6688     9.4783     0.7008 C.3     
  34 C34            2.1488    10.1257     1.9659 C.2     
  35 C35            4.2063     9.5908     0.8023 C.3     
  36 C36            4.3822    10.6410     1.9228 C.3     
  37 O37            3.1772    10.5127     2.7341 O.3     
  38 O38            0.9817    10.2719     2.2423 O.2     
  39 H39            2.0729    -2.6903    -0.8037 H       
  40 H40            0.4431    -2.6553    -0.3972 H       
  41 H41           -1.4243     2.0797     0.0367 H       
  42 H42            3.8217     2.2716    -1.7271 H       
  43 H43           -1.9211     4.3768    -0.9411 H       
  44 H44            7.8855     2.5896    -3.9938 H       
  45 H45            7.0364    -1.6448    -0.6854 H       
  46 H46            5.8914    -2.2181    -1.9217 H       
  47 H47            7.4925    -1.6092    -2.4056 H       
  48 H48           -1.2458     6.7365    -0.8476 H       
  49 H49            2.4709     5.5912     0.9679 H       
  50 H50            1.7845     3.2347     0.8740 H       
  51 H51            8.7090    -0.4294    -1.0801 H       
  52 H52           11.1005    -0.3210    -1.6513 H       
  53 H53           11.8834     1.2347    -3.3903 H       
  54 H54           10.2786     2.6885    -4.5601 H       
  55 H55            2.8563     7.3819     0.9805 H       
  56 H56            2.3047    10.0132    -0.1764 H       
  57 H57            4.6472     8.6369     1.0916 H       
  58 H58            4.6322     9.9483    -0.1352 H       
  59 H59            5.2675    10.4177     2.5182 H       
  60 H60            4.4505    11.6427     1.4984 H       
@<TRIPOS>BOND
   1    1    2 2
   2    1    4 1
   3    1   11 1
   4    2    3 1
   5    2    6 1
   6    3   12 3
   7    4    5 1
   8    5    6 2
   9    5    7 1
  10    6   10 1
  11    7    8 1
  12    7    9 2
  13    8   13 1
  14    8   18 2
  15   10   39 1
  16   10   40 1
  17   11   14 1
  18   11   41 1
  19   13   16 2
  20   13   42 1
  21   14   15 ar
  22   14   25 ar
  23   15   22 ar
  24   15   43 1
  25   16   17 1
  26   17   18 1
  27   17   19 1
  28   18   21 1
  29   19   20 ar
  30   19   26 ar
  31   20   29 ar
  32   20   44 1
  33   21   45 1
  34   21   46 1
  35   21   47 1
  36   22   23 ar
  37   22   48 1
  38   23   24 ar
  39   23   30 1
  40   24   25 ar
  41   24   49 1
  42   25   50 1
  43   26   27 ar
  44   26   51 1
  45   27   28 ar
  46   27   52 1
  47   28   29 ar
  48   28   53 1
  49   29   54 1
  50   30   31 am
  51   30   32 2
  52   31   33 1
  53   31   55 1
  54   33   34 1
  55   33   35 1
  56   33   56 1
  57   34   38 2
  58   34   37 1
  59   35   36 1
  60   35   57 1
  61   35   58 1
  62   36   37 1
  63   36   59 1
  64   36   60 1

#	End of record

