#	Name: ASD00990123
#	Creating user name:	WinNT
#	Creation time:	15. 06. 2019 18:54

#	Modifying user name:	WinNT
#	Modification time:	15. 06. 2019 18:54

#	Program:	/corina/corina34_cracker 3.40 0067  02.08.2006

@<TRIPOS>MOLECULE
ASD00990123
  55   56    0    0    0
SMALL
NO_CHARGES


@<TRIPOS>ATOM
   1 Cl1            0.0000     0.0000     0.0000 Cl      
   2 H2             0.0000     1.3700     0.0000 H       
   3 N3             6.8600    25.2758     6.9535 N.am    
   4 C4             6.8783    23.9281     6.9461 C.2     
   5 O5             7.9367    23.3361     6.9328 O.2     
   6 C6             5.5836    23.1570     6.9543 C.3     
   7 N7             5.8708    21.7204     6.9438 N.am    
   8 C8             6.0272    20.9161     5.7263 C.3     
   9 C9             6.7327    19.6180     6.1777 C.3     
  10 C10            6.3204    19.5362     7.6657 C.3     
  11 H11            5.4294    18.9191     7.7813 H       
  12 N12            7.4200    19.0033     8.4739 N.am    
  13 C13            7.1591    18.3844     9.6424 C.2     
  14 O14            6.0140    18.2686    10.0248 O.2     
  15 C15            8.2902    17.8363    10.4737 C.3     
  16 H16            9.1267    18.5351    10.4681 H       
  17 C17            8.7420    16.4721     9.9113 C.3     
  18 C18            9.0473    15.6502    11.1911 C.3     
  19 H19           10.0451    15.8728    11.5693 H       
  20 C20            7.9574    16.1676    12.1627 C.3     
  21 N21            7.8330    17.6123    11.8574 N.3     
  22 N22            8.8914    14.2149    10.9427 N.am    
  23 C23            9.5604    13.3233    11.7003 C.2     
  24 O24           10.2934    13.7102    12.5901 O.2     
  25 C25            9.4035    11.8786    11.4503 C.ar    
  26 C26            8.5609    11.4437    10.4190 C.ar    
  27 C27            8.4057    10.1129    10.1751 C.ar    
  28 I28            7.1470     9.4593     8.6331 I       
  29 C29            9.1287     9.1425    11.0022 C.ar    
  30 C30            9.9746     9.6139    12.0391 C.ar    
  31 C31           10.1063    10.9568    12.2468 C.ar    
  32 O32           10.9199    11.4067    13.2353 O.3     
  33 N33            8.9941     7.8451    10.7852 N.2     
  34 N34            9.5520     7.1076    11.4240 N.1     
  35 N35           10.1100     6.3700    12.0628 N.pl3   
  36 C36            6.0305    20.9708     8.0481 C.2     
  37 O37            5.9512    21.3841     9.1856 O.2     
  38 H38            7.6933    25.7721     6.9482 H       
  39 H39            6.0134    25.7493     6.9601 H       
  40 H40            5.0170    23.4077     7.8511 H       
  41 H41            5.0000    23.4173     6.0712 H       
  42 H42            5.0515    20.6859     5.2983 H       
  43 H43            6.6427    21.4469     5.0000 H       
  44 H44            6.3598    18.7578     5.6217 H       
  45 H45            7.8144    19.7066     6.0769 H       
  46 H46            8.3358    19.0960     8.1680 H       
  47 H47            7.9405    16.0075     9.3370 H       
  48 H48            9.6389    16.5843     9.3022 H       
  49 H49            7.0121    15.6569    11.9793 H       
  50 H50            8.2722    16.0255    13.1966 H       
  51 H51            8.3657    18.1691    12.5089 H       
  52 H52            8.3067    13.9062    10.2330 H       
  53 H53            8.0323    12.1666     9.8153 H       
  54 H54           10.5152     8.9136    12.6586 H       
  55 H55           10.4795    11.5123    14.0897 H       
@<TRIPOS>BOND
   1    1    2 1
   2    3    4 am
   3    3   38 1
   4    3   39 1
   5    4    5 2
   6    4    6 1
   7    6    7 1
   8    6   40 1
   9    6   41 1
  10    7   36 am
  11    7    8 1
  12    8    9 1
  13    8   42 1
  14    8   43 1
  15    9   10 1
  16    9   44 1
  17    9   45 1
  18   10   11 1
  19   10   12 1
  20   10   36 1
  21   12   13 am
  22   12   46 1
  23   13   14 2
  24   13   15 1
  25   15   16 1
  26   15   21 1
  27   15   17 1
  28   17   18 1
  29   17   47 1
  30   17   48 1
  31   18   19 1
  32   18   20 1
  33   18   22 1
  34   20   21 1
  35   20   49 1
  36   20   50 1
  37   21   51 1
  38   22   23 am
  39   22   52 1
  40   23   24 2
  41   23   25 1
  42   25   31 ar
  43   25   26 ar
  44   26   27 ar
  45   26   53 1
  46   27   28 1
  47   27   29 ar
  48   29   30 ar
  49   29   33 1
  50   30   31 ar
  51   30   54 1
  52   31   32 1
  53   32   55 1
  54   33   34 2
  55   34   35 2
  56   36   37 2

#	End of record

