#	Name: ASD02562048
#	Creating user name:	WinNT
#	Creation time:	15. 06. 2019 20:25

#	Modifying user name:	WinNT
#	Modification time:	15. 06. 2019 20:25

#	Program:	/corina/corina34_cracker 3.40 0067  02.08.2006

@<TRIPOS>MOLECULE
ASD02562048
  43   46    0    0    0
SMALL
NO_CHARGES


@<TRIPOS>ATOM
   1 C1             0.1550     1.3722     1.2128 C.2     
   2 C2             0.1697    -0.0332     1.1603 C.2     
   3 C3             1.2937    -0.6900     0.8108 C.2     
   4 N4             2.4358    -0.0012     0.5015 N.pl3   
   5 C5             2.4515     1.3743     0.5436 C.2     
   6 C6             1.2803     2.0716     0.9088 C.2     
   7 C7             3.6845    -0.4110     0.1240 C.2     
   8 C8             4.4405     0.7281    -0.0575 C.2     
   9 N9             3.6603     1.7923     0.2058 N.2     
  10 N10            4.1121    -1.7287    -0.0444 N.3     
  11 C11            5.8628     0.7723    -0.4706 C.ar    
  12 C12            2.9887    -2.6668     0.0817 C.3     
  13 C13            3.3291    -3.9704    -0.6434 C.3     
  14 C14            2.1591    -4.9475    -0.5121 C.3     
  15 C15            1.9018    -5.2391     0.9676 C.3     
  16 C16            1.5615    -3.9356     1.6928 C.3     
  17 C17            2.7315    -2.9585     1.5614 C.3     
  18 C18            6.5123     1.9995    -0.6181 C.ar    
  19 C19            7.8391     2.0330    -1.0038 C.ar    
  20 C20            8.5218     0.8543    -1.2436 C.ar    
  21 C21            7.8827    -0.3642    -1.0988 C.ar    
  22 C22            6.5600    -0.4116    -0.7082 C.ar    
  23 F23            5.8455     3.1511    -0.3849 F       
  24 H24           -0.7490     1.8943     1.4894 H       
  25 H25           -0.7242    -0.5890     1.4018 H       
  26 H26            1.2934    -1.7694     0.7746 H       
  27 H27            1.2780     3.1509     0.9464 H       
  28 H28            4.5834    -1.8456    -0.9289 H       
  29 H29            2.0960    -2.2264    -0.3624 H       
  30 H30            3.5123    -3.7626    -1.6976 H       
  31 H31            4.2218    -4.4107    -0.1994 H       
  32 H32            1.2663    -4.5071    -0.9562 H       
  33 H33            2.4015    -5.8762    -1.0287 H       
  34 H34            1.0683    -5.9353     1.0612 H       
  35 H35            2.7945    -5.6795     1.4117 H       
  36 H36            0.6687    -3.4952     1.2487 H       
  37 H37            1.3782    -4.1434     2.7470 H       
  38 H38            3.6242    -3.3989     2.0055 H       
  39 H39            2.4890    -2.0298     2.0780 H       
  40 H40            8.3434     2.9811    -1.1185 H       
  41 H41            9.5583     0.8852    -1.5455 H       
  42 H42            8.4216    -1.2809    -1.2876 H       
  43 H43            6.0630    -1.3639    -0.5958 H       
@<TRIPOS>BOND
   1    1    2 1
   2    1    6 2
   3    1   24 1
   4    2    3 2
   5    2   25 1
   6    3    4 1
   7    3   26 1
   8    4    5 1
   9    4    7 1
  10    5    6 1
  11    5    9 2
  12    6   27 1
  13    7    8 2
  14    7   10 1
  15    8    9 1
  16    8   11 1
  17   10   12 1
  18   10   28 1
  19   11   18 ar
  20   11   22 ar
  21   12   13 1
  22   12   17 1
  23   12   29 1
  24   13   14 1
  25   13   30 1
  26   13   31 1
  27   14   15 1
  28   14   32 1
  29   14   33 1
  30   15   16 1
  31   15   34 1
  32   15   35 1
  33   16   17 1
  34   16   36 1
  35   16   37 1
  36   17   38 1
  37   17   39 1
  38   18   19 ar
  39   18   23 1
  40   19   20 ar
  41   19   40 1
  42   20   21 ar
  43   20   41 1
  44   21   22 ar
  45   21   42 1
  46   22   43 1

#	End of record

