#	Name: ASD03731503
#	Creating user name:	WinNT
#	Creation time:	15. 06. 2019 20:45

#	Modifying user name:	WinNT
#	Modification time:	15. 06. 2019 20:45

#	Program:	/corina/corina34_cracker 3.40 0067  02.08.2006

@<TRIPOS>MOLECULE
ASD03731503
  67   72    0    0    0
SMALL
NO_CHARGES


@<TRIPOS>ATOM
   1 C1             0.0932     1.6536    -0.1174 C.2     
   2 C2             0.0137     0.1508    -0.0393 C.3     
   3 C3             1.2382    -0.4610    -0.7230 C.3     
   4 C4             1.2199    -1.9797    -0.5383 C.3     
   5 O5             1.1697     2.2083    -0.0498 O.2     
   6 N6            -1.0314     2.3810    -0.2681 N.am    
   7 C7            -0.9670     3.8443    -0.2370 C.3     
   8 C8            -2.3710     4.4208    -0.4300 C.3     
   9 C9            -2.3037     5.9489    -0.3975 C.3     
  10 O10           -8.9240     3.4020     0.7758 O.3     
  11 C11          -10.3567     3.5384     0.8168 C.3     
  12 O12          -10.5594     4.8679     1.3310 O.3     
  13 C13           -9.4470     5.5731     0.9705 C.ar    
  14 C14           -8.4414     4.6711     0.6301 C.ar    
  15 C15           -9.2075     6.9338     0.9031 C.ar    
  16 C16           -7.9648     7.4118     0.4983 C.ar    
  17 C17           -6.9656     6.5011     0.1688 C.ar    
  18 C18           -7.2032     5.1437     0.2290 C.ar    
  19 O19           -7.5313     8.6963     0.3485 O.3     
  20 C20           -5.7502     7.3110    -0.1955 C.3     
  21 C21           -6.0909     8.7125     0.3291 C.3     
  22 N22           -3.6481     6.5009    -0.5823 N.am    
  23 C23           -4.4974     6.7684     0.4297 C.2     
  24 C24           -5.4882     7.3147    -1.6724 C.ar    
  25 C25           -6.2307     7.6910    -2.7694 C.ar    
  26 C26           -5.6975     7.5729    -4.0406 C.ar    
  27 C27           -4.4177     7.0755    -4.2068 C.ar    
  28 C28           -3.6705     6.6964    -3.1112 C.ar    
  29 C29           -4.1989     6.8122    -1.8278 C.ar    
  30 O30           -4.2902     6.6035     1.6133 O.2     
  31 C31            1.2078    -0.1284    -2.2161 C.3     
  32 C32           -0.0204    -0.2760     1.4056 C.ar    
  33 C33           -1.1002    -0.9907     1.8897 C.ar    
  34 C34           -1.1320    -1.3824     3.2148 C.ar    
  35 C35           -0.0829    -1.0591     4.0568 C.ar    
  36 C36            0.9975    -0.3439     3.5718 C.ar    
  37 C37            1.0308     0.0424     2.2451 C.ar    
  38 Cl38          -0.1225    -1.5502     5.7214 Cl      
  39 H39           -0.8914    -0.1918    -0.5408 H       
  40 H40            2.1451    -0.0517    -0.2780 H       
  41 H41            0.3129    -2.3889    -0.9833 H       
  42 H42            2.0922    -2.4155    -1.0253 H       
  43 H43            1.2415    -2.2166     0.5255 H       
  44 H44           -1.8834     1.9357    -0.3970 H       
  45 H45           -0.5693     4.1701     0.7242 H       
  46 H46           -0.3164     4.1964    -1.0375 H       
  47 H47           -2.7686     4.0949    -1.3911 H       
  48 H48           -3.0216     4.0686     0.3706 H       
  49 H49           -1.9061     6.2748     0.5636 H       
  50 H50           -1.6532     6.3011    -1.1981 H       
  51 H51          -10.7790     3.4463    -0.1838 H       
  52 H52          -10.7929     2.7978     1.4873 H       
  53 H53           -9.9901     7.6299     1.1664 H       
  54 H54           -6.4214     4.4477    -0.0370 H       
  55 H55           -5.7215     9.4806    -0.3504 H       
  56 H56           -5.6918     8.8577     1.3329 H       
  57 H57           -7.2299     8.0789    -2.6373 H       
  58 H58           -6.2792     7.8687    -4.9012 H       
  59 H59           -4.0016     6.9832    -5.1991 H       
  60 H60           -2.6720     6.3084    -3.2490 H       
  61 H61            1.3106     0.9483    -2.3507 H       
  62 H62            2.0304    -0.6375    -2.7185 H       
  63 H63            0.2610    -0.4592    -2.6429 H       
  64 H64           -1.9192    -1.2427     1.2324 H       
  65 H65           -1.9759    -1.9404     3.5929 H       
  66 H66            1.8167    -0.0912     4.2286 H       
  67 H67            1.8762     0.5969     1.8653 H       
@<TRIPOS>BOND
   1    1    2 1
   2    1    5 2
   3    1    6 am
   4    2    3 1
   5    2   32 1
   6    2   39 1
   7    3    4 1
   8    3   31 1
   9    3   40 1
  10    4   41 1
  11    4   42 1
  12    4   43 1
  13    6    7 1
  14    6   44 1
  15    7    8 1
  16    7   45 1
  17    7   46 1
  18    8    9 1
  19    8   47 1
  20    8   48 1
  21    9   22 1
  22    9   49 1
  23    9   50 1
  24   10   11 1
  25   10   14 1
  26   11   12 1
  27   11   51 1
  28   11   52 1
  29   12   13 1
  30   13   14 ar
  31   13   15 ar
  32   14   18 ar
  33   15   16 ar
  34   15   53 1
  35   16   17 ar
  36   16   19 1
  37   17   18 ar
  38   17   20 1
  39   18   54 1
  40   19   21 1
  41   20   21 1
  42   20   23 1
  43   20   24 1
  44   21   55 1
  45   21   56 1
  46   22   23 am
  47   22   29 1
  48   23   30 2
  49   24   25 ar
  50   24   29 ar
  51   25   26 ar
  52   25   57 1
  53   26   27 ar
  54   26   58 1
  55   27   28 ar
  56   27   59 1
  57   28   29 ar
  58   28   60 1
  59   31   61 1
  60   31   62 1
  61   31   63 1
  62   32   33 ar
  63   32   37 ar
  64   33   34 ar
  65   33   64 1
  66   34   35 ar
  67   34   65 1
  68   35   36 ar
  69   35   38 1
  70   36   37 ar
  71   36   66 1
  72   37   67 1

#	End of record

