#	Name: ASD02508225
#	Creating user name:	WinNT
#	Creation time:	15. 06. 2019 20:24

#	Modifying user name:	WinNT
#	Modification time:	15. 06. 2019 20:24

#	Program:	/corina/corina34_cracker 3.40 0067  02.08.2006

@<TRIPOS>MOLECULE
ASD02508225
  55   58    0    0    0
SMALL
NO_CHARGES


@<TRIPOS>ATOM
   1 C1            -0.0168     1.3904     0.0097 C.ar    
   2 C2             0.0021    -0.0041     0.0020 C.ar    
   3 C3            -1.1922    -0.7077     0.0096 C.ar    
   4 C4            -2.3933    -0.0260     0.0248 C.ar    
   5 C5            -2.4110     1.3580     0.0319 C.ar    
   6 C6            -1.2261     2.0677     0.0299 C.ar    
   7 S7            -3.9102    -0.9224     0.0344 S.o2    
   8 N8            -4.6586    -0.6040     1.4770 N.am    
   9 C9            -5.5849     0.5297     1.6048 C.3     
  10 N10            1.3140     1.8071    -0.0008 N.am    
  11 C11            2.0846     0.7014    -0.0141 C.2     
  12 O12            1.3018    -0.3890    -0.0125 O.3     
  13 O13           -4.7245    -0.3441    -0.9763 O.2     
  14 O14           -3.5621    -2.2999     0.0585 O.2     
  15 C15            1.7879     3.1933     0.0021 C.3     
  16 O16            3.3005     0.6929    -0.0257 O.2     
  17 C17           -6.9290     0.0079     2.1276 C.3     
  18 N18           -6.6791    -0.8386     3.3028 N.am    
  19 C19           -5.7527    -1.9723     3.1750 C.3     
  20 C20           -4.4130    -1.4538     2.6506 C.3     
  21 S21           -7.4275    -0.5201     4.7453 S.o2    
  22 C22           -8.9447    -1.4160     4.7547 C.ar    
  23 C23           -9.9437    -1.0990     3.8456 C.ar    
  24 C24           -3.7268     2.0925     0.0474 C.3     
  25 O25           -6.6135    -1.0990     5.7560 O.2     
  26 O26           -7.7751     0.8575     4.7215 O.2     
  27 C27           -9.1381    -2.4382     5.6633 C.ar    
  28 C28          -10.3295    -3.1421     5.6711 C.ar    
  29 C29          -11.3291    -2.8236     4.7692 C.ar    
  30 C30          -11.1372    -1.8056     3.8549 C.ar    
  31 O31           -9.7532    -0.0969     2.9473 O.3     
  32 C32          -10.8246     0.1746     2.0414 C.3     
  33 Cl33         -10.5700    -4.4267     6.8137 Cl      
  34 H34           -1.1834    -1.7877     0.0034 H       
  35 H35           -1.2417     3.1476     0.0359 H       
  36 H36           -5.1774     1.2579     2.3061 H       
  37 H37           -5.7279     0.9969     0.6304 H       
  38 H38            1.9152     3.5316     1.0305 H       
  39 H39            2.7426     3.2521    -0.5205 H       
  40 H40            1.0584     3.8277    -0.5014 H       
  41 H41           -7.5628     0.8484     2.4103 H       
  42 H42           -7.4203    -0.5793     1.3517 H       
  43 H43           -5.6097    -2.4395     4.1493 H       
  44 H44           -6.1603    -2.7004     2.4736 H       
  45 H45           -3.7802    -2.2952     2.3684 H       
  46 H46           -3.9201    -0.8657     3.4247 H       
  47 H47           -4.0348     2.2644     1.0788 H       
  48 H48           -3.6149     3.0493    -0.4626 H       
  49 H49           -4.4825     1.4951    -0.4627 H       
  50 H50           -8.3588    -2.6884     6.3680 H       
  51 H51          -12.2581    -3.3743     4.7765 H       
  52 H52          -11.9178    -1.5570     3.1513 H       
  53 H53          -10.5428     0.9945     1.3807 H       
  54 H54          -11.0327    -0.7154     1.4476 H       
  55 H55          -11.7154     0.4519     2.6050 H       
@<TRIPOS>BOND
   1    1    2 ar
   2    1   10 1
   3    1    6 ar
   4    2    3 ar
   5    2   12 1
   6    3    4 ar
   7    3   34 1
   8    4    5 ar
   9    4    7 1
  10    5    6 ar
  11    5   24 1
  12    6   35 1
  13    7    8 am
  14    7   13 2
  15    7   14 2
  16    8    9 1
  17    8   20 1
  18    9   17 1
  19    9   36 1
  20    9   37 1
  21   10   11 am
  22   10   15 1
  23   11   12 1
  24   11   16 2
  25   15   38 1
  26   15   39 1
  27   15   40 1
  28   17   18 1
  29   17   41 1
  30   17   42 1
  31   18   19 1
  32   18   21 am
  33   19   20 1
  34   19   43 1
  35   19   44 1
  36   20   45 1
  37   20   46 1
  38   21   22 1
  39   21   25 2
  40   21   26 2
  41   22   23 ar
  42   22   27 ar
  43   23   31 1
  44   23   30 ar
  45   24   47 1
  46   24   48 1
  47   24   49 1
  48   27   28 ar
  49   27   50 1
  50   28   29 ar
  51   28   33 1
  52   29   30 ar
  53   29   51 1
  54   30   52 1
  55   31   32 1
  56   32   53 1
  57   32   54 1
  58   32   55 1

#	End of record

