#	Name: ASD03490054
#	Creating user name:	WinNT
#	Creation time:	15. 06. 2019 20:42

#	Modifying user name:	WinNT
#	Modification time:	15. 06. 2019 20:42

#	Program:	/corina/corina34_cracker 3.40 0067  02.08.2006

@<TRIPOS>MOLECULE
ASD03490054
  72   72    0    0    0
SMALL
NO_CHARGES


@<TRIPOS>ATOM
   1 O1            -5.5548    -0.6208     2.7612 O.3     
   2 C2            -4.2644    -0.2800     2.6174 C.2     
   3 C3            -3.4536    -0.8588     1.4867 C.3     
   4 O4            -3.7531     0.4910     3.3946 O.2     
   5 O5            -2.0931    -0.4407     1.6131 O.3     
   6 C6            -3.5249    -2.3872     1.5376 C.3     
   7 O7            -3.9793    -0.3999     0.2396 O.3     
   8 C8            -3.2641    -0.8715    -0.9041 C.3     
   9 C9            -3.3279    -2.4004    -0.9494 C.3     
  10 C10           -2.7486    -2.9666     0.3510 C.3     
  11 C11           -3.8955    -0.2966    -2.1736 C.3     
  12 C12           -3.0708    -0.7207    -3.3905 C.3     
  13 C13           -3.7873    -0.2834    -4.6697 C.3     
  14 O14           -4.0427     1.1216    -4.6161 O.3     
  15 O15           -1.7829    -0.1043    -3.3314 O.3     
  16 C16           -4.7837    -2.8472    -1.0979 C.3     
  17 O17           -4.8615    -4.2681    -0.9677 O.3     
  18 O18           -1.3706    -2.6039     0.4582 O.3     
  19 P19           -0.4097    -0.9217    -3.5270 P.3     
  20 S20           -0.4528    -2.4667    -2.4859 S.2     
  21 N21           -5.2845    -2.4494    -2.4160 N.am    
  22 O22           -7.2536    -1.8763    -1.5698 O.2     
  23 C23           -6.5392    -1.9744    -2.5449 C.2     
  24 C24           -7.0543    -1.5653    -3.9007 C.3     
  25 O25           -0.2405    -1.3234    -5.0769 O.3     
  26 C26            1.4992    -3.6278    -9.0542 C.3     
  27 C27            1.5976    -3.4917    -7.5334 C.3     
  28 C28            0.5963    -2.4409    -7.0496 C.3     
  29 C29            0.6948    -2.3048    -5.5288 C.3     
  30 O30            0.8314    -0.0025    -3.0722 O.3     
  31 C31            5.4095     1.1912    -1.7411 C.3     
  32 C32            4.4740     0.0531    -2.1540 C.3     
  33 C33            3.0742     0.6128    -2.4153 C.3     
  34 C34            2.1388    -0.5253    -2.8282 C.3     
  35 H35           -6.0339    -0.2238     3.5014 H       
  36 H36           -1.9633     0.5122     1.5114 H       
  37 H37           -3.0839    -2.7416     2.4693 H       
  38 H38           -4.5659    -2.7054     1.4821 H       
  39 H39           -2.2237    -0.5529    -0.8390 H       
  40 H40           -2.7460    -2.7644    -1.7962 H       
  41 H41           -2.8421    -4.0526     0.3494 H       
  42 H42           -4.9134    -0.6729    -2.2756 H       
  43 H43           -3.9151     0.7913    -2.1091 H       
  44 H44           -2.9551    -1.8045    -3.3913 H       
  45 H45           -3.1590    -0.5058    -5.5322 H       
  46 H46           -4.7311    -0.8211    -4.7595 H       
  47 H47           -4.4960     1.4690    -5.3964 H       
  48 H48           -5.3888    -2.3776    -0.3224 H       
  49 H49           -4.2878    -4.7510    -1.5782 H       
  50 H50           -0.9392    -2.9301     1.2598 H       
  51 H51           -4.7131    -2.5279    -3.1959 H       
  52 H52           -6.2767    -1.7238    -4.6479 H       
  53 H53           -7.9286    -2.1652    -4.1534 H       
  54 H54           -7.3303    -0.5110    -3.8816 H       
  55 H55            2.2125    -4.3764    -9.3989 H       
  56 H56            0.4896    -3.9353    -9.3268 H       
  57 H57            1.7252    -2.6687    -9.5202 H       
  58 H58            1.3716    -4.4508    -7.0674 H       
  59 H59            2.6072    -3.1842    -7.2608 H       
  60 H60            0.8223    -1.4819    -7.5156 H       
  61 H61           -0.4133    -2.7484    -7.3222 H       
  62 H62            1.7043    -1.9973    -5.2562 H       
  63 H63            0.4687    -3.2639    -5.0628 H       
  64 H64            5.4572     1.9305    -2.5406 H       
  65 H65            5.0310     1.6614    -0.8335 H       
  66 H66            6.4067     0.7924    -1.5549 H       
  67 H67            4.8525    -0.4172    -3.0616 H       
  68 H68            4.4263    -0.6862    -1.3545 H       
  69 H69            2.6957     1.0831    -1.5077 H       
  70 H70            3.1220     1.3521    -3.2148 H       
  71 H71            2.0910    -1.2646    -2.0287 H       
  72 H72            2.5173    -0.9955    -3.7358 H       
@<TRIPOS>BOND
   1    1    2 1
   2    1   35 1
   3    2    3 1
   4    2    4 2
   5    3    5 1
   6    3    6 1
   7    3    7 1
   8    5   36 1
   9    6   10 1
  10    6   37 1
  11    6   38 1
  12    7    8 1
  13    8    9 1
  14    8   11 1
  15    8   39 1
  16    9   10 1
  17    9   16 1
  18    9   40 1
  19   10   18 1
  20   10   41 1
  21   11   12 1
  22   11   42 1
  23   11   43 1
  24   12   13 1
  25   12   15 1
  26   12   44 1
  27   13   14 1
  28   13   45 1
  29   13   46 1
  30   14   47 1
  31   15   19 1
  32   16   17 1
  33   16   21 1
  34   16   48 1
  35   17   49 1
  36   18   50 1
  37   19   20 2
  38   19   25 1
  39   19   30 1
  40   21   23 am
  41   21   51 1
  42   22   23 2
  43   23   24 1
  44   24   52 1
  45   24   53 1
  46   24   54 1
  47   25   29 1
  48   26   27 1
  49   26   55 1
  50   26   56 1
  51   26   57 1
  52   27   28 1
  53   27   58 1
  54   27   59 1
  55   28   29 1
  56   28   60 1
  57   28   61 1
  58   29   62 1
  59   29   63 1
  60   30   34 1
  61   31   32 1
  62   31   64 1
  63   31   65 1
  64   31   66 1
  65   32   33 1
  66   32   67 1
  67   32   68 1
  68   33   34 1
  69   33   69 1
  70   33   70 1
  71   34   71 1
  72   34   72 1

#	End of record

