#	Name: ASD03912051
#	Creating user name:	WinNT
#	Creation time:	15. 06. 2019 20:47

#	Modifying user name:	WinNT
#	Modification time:	15. 06. 2019 20:47

#	Program:	/corina/corina34_cracker 3.40 0067  02.08.2006

@<TRIPOS>MOLECULE
ASD03912051
  68   70    0    0    0
SMALL
NO_CHARGES


@<TRIPOS>ATOM
   1 C1             0.0405    -0.3395     0.6729 C.ar    
   2 C2             1.0221     0.3206     1.3890 C.ar    
   3 C3             0.7381     1.5226     2.0110 C.ar    
   4 C4            -0.5277     2.0672     1.9191 C.ar    
   5 C5            -1.5157     1.4067     1.2007 C.ar    
   6 C6            -1.2256     0.2029     0.5720 C.ar    
   7 C7             0.3544    -1.6492    -0.0034 C.3     
   8 C8             1.8109     2.2386     2.7905 C.3     
   9 N9            -2.7992     1.9559     1.1057 N.am    
  10 C10           -2.9571     3.2928     1.0424 C.2     
  11 C11           -4.3286     3.8804     0.8304 C.3     
  12 O12           -1.9955     4.0232     1.1560 O.2     
  13 C13           -4.2315     5.3839     0.7981 C.ar    
  14 C14           -4.0193     6.0361    -0.4024 C.ar    
  15 C15           -3.9300     7.4143    -0.4347 C.ar    
  16 C16           -4.0533     8.1439     0.7388 C.ar    
  17 C17           -4.2661     7.4871     1.9421 C.ar    
  18 C18           -4.3604     6.1091     1.9682 C.ar    
  19 O19           -3.9652     9.4998     0.7098 O.3     
  20 C20           -4.1837    10.1906     1.9414 C.3     
  21 C21           -5.5533     9.8653     2.4795 C.2     
  22 C22           -3.1068     9.7940     2.9665 C.3     
  23 C23           -2.3537    11.0882     3.3376 C.3     
  24 C24           -3.3624    12.2194     3.0186 C.3     
  25 C25           -4.0487    11.7120     1.7251 C.3     
  26 N26           -6.5897     9.7065     1.6327 N.am    
  27 O27           -5.7228     9.7463     3.6745 O.2     
  28 C28           -7.8962     9.2857     2.1448 C.3     
  29 C29           -8.6602    10.4928     2.6246 C.2     
  30 O30           -8.1643    11.5919     2.5467 O.2     
  31 O31           -9.8917    10.3471     3.1384 O.3     
  32 C32           -8.6828     8.5945     1.0293 C.3     
  33 C33           -7.9698     7.3017     0.6281 C.3     
  34 O34           -8.7044     6.6561    -0.4139 O.3     
  35 O35           -8.1043     5.3977    -0.8768 O.3     
  36 O36           -8.8595     4.7341    -1.9479 O.3     
  37 H37            2.0126    -0.1036     1.4630 H       
  38 H38           -0.7491     3.0056     2.4058 H       
  39 H39           -1.9917    -0.3130     0.0123 H       
  40 H40            0.1503    -2.4708     0.6832 H       
  41 H41           -0.2662    -1.7565    -0.8931 H       
  42 H42            1.4060    -1.6675    -0.2896 H       
  43 H43            2.3492     2.9171     2.1287 H       
  44 H44            1.3535     2.8074     3.6000 H       
  45 H45            2.5059     1.5092     3.2065 H       
  46 H46           -3.5753     1.3743     1.0853 H       
  47 H47           -4.7352     3.5221    -0.1154 H       
  48 H48           -4.9843     3.5761     1.6463 H       
  49 H49           -3.9231     5.4677    -1.3156 H       
  50 H50           -3.7639     7.9233    -1.3726 H       
  51 H51           -4.3625     8.0528     2.8570 H       
  52 H52           -4.5261     5.5973     2.9047 H       
  53 H53           -3.5748     9.3670     3.8535 H       
  54 H54           -2.4176     9.0745     2.5245 H       
  55 H55           -2.0997    11.0912     4.3975 H       
  56 H56           -1.4558    11.1949     2.7289 H       
  57 H57           -4.0891    12.3274     3.8238 H       
  58 H58           -2.8430    13.1603     2.8369 H       
  59 H59           -3.4247    11.9193     0.8557 H       
  60 H60           -5.0307    12.1707     1.6092 H       
  61 H61           -6.4706     9.8708     0.6842 H       
  62 H62           -7.7553     8.5919     2.9736 H       
  63 H63          -10.3425    11.1504     3.4328 H       
  64 H64           -9.6868     8.3609     1.3836 H       
  65 H65           -8.7472     9.2569     0.1660 H       
  66 H66           -6.9658     7.5353     0.2737 H       
  67 H67           -7.9054     6.6393     1.4914 H       
  68 H68           -8.4645     3.9058    -2.2526 H       
@<TRIPOS>BOND
   1    1    2 ar
   2    1    7 1
   3    1    6 ar
   4    2    3 ar
   5    2   37 1
   6    3    4 ar
   7    3    8 1
   8    4    5 ar
   9    4   38 1
  10    5    6 ar
  11    5    9 1
  12    6   39 1
  13    7   40 1
  14    7   41 1
  15    7   42 1
  16    8   43 1
  17    8   44 1
  18    8   45 1
  19    9   10 am
  20    9   46 1
  21   10   11 1
  22   10   12 2
  23   11   13 1
  24   11   47 1
  25   11   48 1
  26   13   14 ar
  27   13   18 ar
  28   14   15 ar
  29   14   49 1
  30   15   16 ar
  31   15   50 1
  32   16   17 ar
  33   16   19 1
  34   17   18 ar
  35   17   51 1
  36   18   52 1
  37   19   20 1
  38   20   21 1
  39   20   22 1
  40   20   25 1
  41   21   26 am
  42   21   27 2
  43   22   23 1
  44   22   53 1
  45   22   54 1
  46   23   24 1
  47   23   55 1
  48   23   56 1
  49   24   25 1
  50   24   57 1
  51   24   58 1
  52   25   59 1
  53   25   60 1
  54   26   28 1
  55   26   61 1
  56   28   29 1
  57   28   32 1
  58   28   62 1
  59   29   30 2
  60   29   31 1
  61   31   63 1
  62   32   33 1
  63   32   64 1
  64   32   65 1
  65   33   34 1
  66   33   66 1
  67   33   67 1
  68   34   35 1
  69   35   36 1
  70   36   68 1

#	End of record

