#	Name: ASD04882178
#	Creating user name:	WinNT
#	Creation time:	15. 06. 2019 20:54

#	Modifying user name:	WinNT
#	Modification time:	15. 06. 2019 20:54

#	Program:	/corina/corina34_cracker 3.40 0067  02.08.2006

@<TRIPOS>MOLECULE
ASD04882178
  78   82    0    0    0
SMALL
NO_CHARGES


@<TRIPOS>ATOM
   1 C1             0.1255     1.4840    -0.4335 C.2     
   2 C2             0.1456     0.0187    -0.4840 C.2     
   3 N3             1.1861    -0.6594     0.0395 N.am    
   4 C4             1.1516    -2.0587     0.0989 C.ar    
   5 C5             2.3302    -2.7944    -0.0530 C.ar    
   6 C6             2.2975    -4.1830     0.0062 C.ar    
   7 C7             1.1044    -4.8385     0.2146 C.ar    
   8 C8            -0.0779    -4.1089     0.3673 C.ar    
   9 C9            -0.0471    -2.7125     0.3134 C.ar    
  10 N10            3.5387    -2.1357    -0.2643 N.3     
  11 C11            3.5440    -1.4489    -1.5635 C.3     
  12 C12            4.6712    -3.0664    -0.1593 C.3     
  13 C13            5.9813    -2.2914    -0.3183 C.3     
  14 N14            5.9866    -1.6046    -1.6174 N.3     
  15 C15            4.8542    -0.6739    -1.7225 C.3     
  16 C16            7.2013    -0.9425    -1.8299 C.ar    
  17 C17            7.9973    -1.2771    -2.9232 C.ar    
  18 C18            7.6132     0.0527    -0.9555 C.ar    
  19 C19            8.8130     0.7054    -1.1677 C.ar    
  20 C20            9.6046     0.3693    -2.2503 C.ar    
  21 C21            9.1982    -0.6183    -3.1287 C.ar    
  22 C22           -1.3558    -4.8114     0.5905 C.2     
  23 N23           -1.3838    -6.1577     0.6474 N.am    
  24 O24           -2.3839    -4.1758     0.7232 O.2     
  25 O25           -0.7773    -0.5852    -0.9988 O.2     
  26 C26           -0.8643     2.2901    -0.9186 C.2     
  27 O27            1.0788     2.2718     0.1056 O.3     
  28 C28            0.7227     3.5560    -0.0289 C.2     
  29 C29           -0.4724     3.6123    -0.6571 C.2     
  30 O30            7.5964    -2.2487    -3.7864 O.3     
  31 C31            1.5217     4.7425     0.4452 C.3     
  32 C32            8.4632    -2.5388    -4.8848 C.3     
  33 C33           -2.6528    -6.8553     0.8691 C.3     
  34 C34           -2.4077    -8.3654     0.8905 C.3     
  35 C35           -3.7330    -9.0939     1.1220 C.3     
  36 N36           -3.4983   -10.5399     1.1425 N.am    
  37 C37           -3.1822   -11.3105     2.3509 C.3     
  38 C38           -2.6018   -12.6499     1.8455 C.3     
  39 C39           -3.2437   -12.7626     0.4433 C.3     
  40 C40           -3.5504   -11.3321     0.0579 C.2     
  41 O41           -3.7997   -10.9541    -1.0672 O.2     
  42 H42            1.9588    -0.1786     0.3752 H       
  43 H43            3.2098    -4.7489    -0.1118 H       
  44 H44            1.0823    -5.9174     0.2597 H       
  45 H45           -0.9590    -2.1461     0.4314 H       
  46 H46            3.4568    -2.1838    -2.3637 H       
  47 H47            2.7037    -0.7563    -1.6121 H       
  48 H48            4.6526    -3.5531     0.8158 H       
  49 H49            4.5967    -3.8197    -0.9436 H       
  50 H50            6.0686    -1.5565     0.4820 H       
  51 H51            6.8217    -2.9840    -0.2697 H       
  52 H52            4.8727    -0.1872    -2.6976 H       
  53 H53            4.9286     0.0794    -0.9382 H       
  54 H54            6.9964     0.3176    -0.1095 H       
  55 H55            9.1327     1.4800    -0.4864 H       
  56 H56           10.5410     0.8824    -2.4126 H       
  57 H57            9.8191    -0.8786    -3.9731 H       
  58 H58           -0.5636    -6.6647     0.5415 H       
  59 H59           -1.7727     1.9719    -1.4085 H       
  60 H60           -1.0224     4.5065    -0.9106 H       
  61 H61            2.4409     4.3962     0.9176 H       
  62 H62            1.7675     5.3783    -0.4054 H       
  63 H63            0.9346     5.3113     1.1663 H       
  64 H64            8.0260    -3.3302    -5.4936 H       
  65 H65            8.5927    -1.6428    -5.4919 H       
  66 H66            9.4323    -2.8646    -4.5067 H       
  67 H67           -3.0775    -6.5426     1.8230 H       
  68 H68           -3.3469    -6.6112     0.0649 H       
  69 H69           -1.9830    -8.6781    -0.0634 H       
  70 H70           -1.7136    -8.6094     1.6947 H       
  71 H71           -4.1577    -8.7812     2.0759 H       
  72 H72           -4.4271    -8.8499     0.3178 H       
  73 H73           -2.4428   -10.7820     2.9526 H       
  74 H74           -4.0867   -11.4870     2.9330 H       
  75 H75           -1.5151   -12.6020     1.7744 H       
  76 H76           -2.9133   -13.4760     2.4847 H       
  77 H77           -2.5429   -13.2088    -0.2623 H       
  78 H78           -4.1629   -13.3464     0.4904 H       
@<TRIPOS>BOND
   1    1    2 1
   2    1   27 1
   3    1   26 2
   4    2    3 am
   5    2   25 2
   6    3    4 1
   7    3   42 1
   8    4    5 ar
   9    4    9 ar
  10    5    6 ar
  11    5   10 1
  12    6    7 ar
  13    6   43 1
  14    7    8 ar
  15    7   44 1
  16    8    9 ar
  17    8   22 1
  18    9   45 1
  19   10   11 1
  20   10   12 1
  21   11   15 1
  22   11   46 1
  23   11   47 1
  24   12   13 1
  25   12   48 1
  26   12   49 1
  27   13   14 1
  28   13   50 1
  29   13   51 1
  30   14   15 1
  31   14   16 1
  32   15   52 1
  33   15   53 1
  34   16   17 ar
  35   16   18 ar
  36   17   30 1
  37   17   21 ar
  38   18   19 ar
  39   18   54 1
  40   19   20 ar
  41   19   55 1
  42   20   21 ar
  43   20   56 1
  44   21   57 1
  45   22   23 am
  46   22   24 2
  47   23   33 1
  48   23   58 1
  49   26   29 1
  50   26   59 1
  51   27   28 1
  52   28   29 2
  53   28   31 1
  54   29   60 1
  55   30   32 1
  56   31   61 1
  57   31   62 1
  58   31   63 1
  59   32   64 1
  60   32   65 1
  61   32   66 1
  62   33   34 1
  63   33   67 1
  64   33   68 1
  65   34   35 1
  66   34   69 1
  67   34   70 1
  68   35   36 1
  69   35   71 1
  70   35   72 1
  71   36   37 1
  72   36   40 am
  73   37   38 1
  74   37   73 1
  75   37   74 1
  76   38   39 1
  77   38   75 1
  78   38   76 1
  79   39   40 1
  80   39   77 1
  81   39   78 1
  82   40   41 2

#	End of record

