#	Name: ASD01811295
#	Creating user name:	WinNT
#	Creation time:	15. 06. 2019 19:26

#	Modifying user name:	WinNT
#	Modification time:	15. 06. 2019 19:26

#	Program:	/corina/corina34_cracker 3.40 0067  02.08.2006

@<TRIPOS>MOLECULE
ASD01811295
  56   59    0    0    0
SMALL
NO_CHARGES


@<TRIPOS>ATOM
   1 C1             6.9122     8.7971    -0.6777 C.1     
   2 C2             5.5178     8.4969    -0.5511 C.ar    
   3 C3             5.0928     7.1712    -0.4427 C.ar    
   4 C4             3.7480     6.8892    -0.3211 C.ar    
   5 C5             2.8210     7.9163    -0.3067 C.ar    
   6 C6             3.2351     9.2321    -0.4142 C.ar    
   7 C7             4.5774     9.5288    -0.5296 C.ar    
   8 N8             8.0184     9.0352    -0.7782 N.1     
   9 N9            -1.3848     8.2872     0.0006 N.am    
  10 C10           -0.6833     7.9165     1.2371 C.3     
  11 C11            0.8001     8.2682     1.0869 C.3     
  12 C12            1.3535     7.6003    -0.1740 C.3     
  13 C13            0.6058     8.1257    -1.4016 C.3     
  14 C14           -0.8799     7.7724    -1.2796 C.3     
  15 C15           -2.4741     9.0799     0.0403 C.2     
  16 C16           -3.0467     9.4848     1.3420 C.ar    
  17 C17           -3.5058    10.7886     1.5292 C.ar    
  18 C18           -4.0418    11.1607     2.7525 C.ar    
  19 C19           -4.1203    10.2355     3.7872 C.ar    
  20 C20           -3.6653     8.9438     3.6014 C.ar    
  21 C21           -3.1348     8.5621     2.3856 C.ar    
  22 O22           -2.9857     9.4619    -0.9940 O.2     
  23 C23           -4.7030    10.6426     5.1161 C.3     
  24 N24           -4.5030    12.4663     2.9456 N.pl3   
  25 O25           -4.5969    14.7338     2.0599 O.3     
  26 C26           -4.2913    13.4259     1.9717 C.2     
  27 N27           -3.7550    13.2307     0.7917 N.2     
  28 N28           -3.7152    14.3465     0.1525 N.2     
  29 C29           -4.2200    15.2901     0.8922 C.2     
  30 C30           -4.3581    16.7418     0.5119 C.3     
  31 C31           -5.7114    16.9648    -0.1662 C.3     
  32 H32            5.8153     6.3685    -0.4545 H       
  33 H33            3.4179     5.8643    -0.2372 H       
  34 H34            2.5062    10.0289    -0.4027 H       
  35 H35            4.8997    10.5565    -0.6086 H       
  36 H36           -1.1064     8.4681     2.0767 H       
  37 H37           -0.7892     6.8455     1.4103 H       
  38 H38            0.9112     9.3494     1.0045 H       
  39 H39            1.3488     7.9110     1.9584 H       
  40 H40            1.2195     6.5210    -0.1019 H       
  41 H41            0.7186     9.2082    -1.4606 H       
  42 H42            1.0160     7.6671    -2.3013 H       
  43 H43           -1.0018     6.6897    -1.3117 H       
  44 H44           -1.4327     8.2289    -2.1006 H       
  45 H45           -3.4436    11.5059     0.7242 H       
  46 H46           -3.7289     8.2295     4.4089 H       
  47 H47           -2.7845     7.5505     2.2430 H       
  48 H48           -5.7773    10.4586     5.1134 H       
  49 H49           -4.2366    10.0604     5.9109 H       
  50 H50           -4.5164    11.7031     5.2851 H       
  51 H51           -4.9715    12.6994     3.7623 H       
  52 H52           -4.2943    17.3596     1.4076 H       
  53 H53           -3.5577    17.0150    -0.1757 H       
  54 H54           -5.7752    16.3470    -1.0619 H       
  55 H55           -6.5118    16.6916     0.5214 H       
  56 H56           -5.8113    18.0148    -0.4412 H       
@<TRIPOS>BOND
   1    1    2 1
   2    1    8 3
   3    2    3 ar
   4    2    7 ar
   5    3    4 ar
   6    3   32 1
   7    4    5 ar
   8    4   33 1
   9    5    6 ar
  10    5   12 1
  11    6    7 ar
  12    6   34 1
  13    7   35 1
  14    9   10 1
  15    9   14 1
  16    9   15 am
  17   10   11 1
  18   10   36 1
  19   10   37 1
  20   11   12 1
  21   11   38 1
  22   11   39 1
  23   12   13 1
  24   12   40 1
  25   13   14 1
  26   13   41 1
  27   13   42 1
  28   14   43 1
  29   14   44 1
  30   15   16 1
  31   15   22 2
  32   16   17 ar
  33   16   21 ar
  34   17   18 ar
  35   17   45 1
  36   18   19 ar
  37   18   24 1
  38   19   20 ar
  39   19   23 1
  40   20   21 ar
  41   20   46 1
  42   21   47 1
  43   23   48 1
  44   23   49 1
  45   23   50 1
  46   24   26 1
  47   24   51 1
  48   25   26 1
  49   25   29 1
  50   26   27 2
  51   27   28 1
  52   28   29 2
  53   29   30 1
  54   30   31 1
  55   30   52 1
  56   30   53 1
  57   31   54 1
  58   31   55 1
  59   31   56 1

#	End of record

