#	Name: ASD01680026
#	Creating user name:	WinNT
#	Creation time:	15. 06. 2019 19:22

#	Modifying user name:	WinNT
#	Modification time:	15. 06. 2019 19:22

#	Program:	/corina/corina34_cracker 3.40 0067  02.08.2006

@<TRIPOS>MOLECULE
ASD01680026
  83   86    0    0    0
SMALL
NO_CHARGES


@<TRIPOS>ATOM
   1 N1             0.0443     1.4003     0.1639 N.am    
   2 C2             0.0202    -0.0651     0.0040 C.3     
   3 C3             1.4291    -0.5353     0.4437 C.3     
   4 C4             2.3236     0.6096    -0.1008 C.3     
   5 C5             1.4389     1.8597     0.0895 C.3     
   6 C6            -1.0340     2.1887     0.3429 C.2     
   7 O7            -2.1506     1.7126     0.2882 O.2     
   8 O8            -0.8739     3.5040     0.5822 O.3     
   9 C9            -1.0521    -0.6815     0.9047 C.3     
  10 N10           -0.8422    -0.2404     2.2859 N.pl3   
  11 C11           -1.7546    -0.5918     3.2739 C.ar    
  12 C12           -2.8650    -1.3628     2.9444 C.ar    
  13 C13           -3.7646    -1.7052     3.9374 C.ar    
  14 C14           -3.5230    -1.2636     5.2317 C.ar    
  15 C15           -2.4009    -0.5017     5.4877 C.ar    
  16 N16           -1.5563    -0.1946     4.5212 N.ar    
  17 O17            3.5255     0.7196     0.6643 O.3     
  18 C18            4.6461     1.2020    -0.0798 C.3     
  19 C19            5.8521     1.2778     0.8208 C.2     
  20 N20            7.0319     1.7088     0.3322 N.am    
  21 O21            5.7609     0.9509     1.9851 O.2     
  22 C22            8.2042     1.7825     1.2076 C.3     
  23 C23            9.4040     2.2989     0.4109 C.3     
  24 N24            9.0607     3.5785    -0.2145 N.am    
  25 C25            9.7077     3.9801    -1.3265 C.2     
  26 C26            9.3621     5.2679    -1.9559 C.ar    
  27 C27           10.0332     5.6905    -3.1142 C.ar    
  28 C28            9.6980     6.9056    -3.6979 C.ar    
  29 C29            8.7101     7.6914    -3.1401 C.ar    
  30 C30            8.0462     7.2772    -1.9966 C.ar    
  31 C31            8.3608     6.0723    -1.4066 C.ar    
  32 O32           10.5764     3.2805    -1.8106 O.2     
  33 N33           11.0274     4.8981    -3.6733 N.3     
  34 C34           10.6847     4.5170    -5.0500 C.3     
  35 C35           12.3303     5.5747    -3.6231 C.3     
  36 C36           10.5770     2.4913     1.3373 C.2     
  37 O37           11.0750     3.5851     1.4624 O.2     
  38 O38           11.0684     1.4477     2.0236 O.3     
  39 C39           -2.0796     4.2922     0.7649 C.3     
  40 C40           -1.7060     5.7297     1.0205 C.ar    
  41 C41           -1.5702     6.6073    -0.0389 C.ar    
  42 C42           -1.2275     7.9258     0.1955 C.ar    
  43 C43           -1.0210     8.3668     1.4893 C.ar    
  44 C44           -1.1577     7.4894     2.5487 C.ar    
  45 C45           -1.5046     6.1719     2.3146 C.ar    
  46 H46           -0.1602    -0.3301    -1.0378 H       
  47 H47            1.4976    -0.6018     1.5295 H       
  48 H48            1.6863    -1.4869    -0.0214 H       
  49 H49            2.5496     0.4540    -1.1557 H       
  50 H50            1.5624     2.5337    -0.7582 H       
  51 H51            1.7111     2.3693     1.0138 H       
  52 H52           -2.0379    -0.3618     0.5670 H       
  53 H53           -0.9863    -1.7684     0.8564 H       
  54 H54           -0.0666     0.2970     2.5108 H       
  55 H55           -3.0223    -1.6890     1.9269 H       
  56 H56           -4.6357    -2.3023     3.7113 H       
  57 H57           -4.2064    -1.5134     6.0298 H       
  58 H58           -2.2091    -0.1562     6.4929 H       
  59 H59            4.8524     0.5229    -0.9070 H       
  60 H60            4.4222     2.1943    -0.4715 H       
  61 H61            7.1048     1.9703    -0.5990 H       
  62 H62            7.9979     2.4616     2.0349 H       
  63 H63            8.4281     0.7902     1.5993 H       
  64 H64            9.6658     1.5757    -0.3614 H       
  65 H65            8.3677     4.1366     0.1718 H       
  66 H66           10.2113     7.2359    -4.5889 H       
  67 H67            8.4531     8.6353    -3.5976 H       
  68 H68            7.2752     7.9001    -1.5678 H       
  69 H69            7.8370     5.7524    -0.5180 H       
  70 H70           10.5702     5.4146    -5.6577 H       
  71 H71           11.4799     3.8970    -5.4640 H       
  72 H72            9.7498     3.9565    -5.0499 H       
  73 H73           12.5917     5.7832    -2.5857 H       
  74 H74           13.0906     4.9323    -4.0674 H       
  75 H75           12.2753     6.5106    -4.1791 H       
  76 H76           11.8214     1.6201     2.6053 H       
  77 H77           -2.6936     4.2306    -0.1335 H       
  78 H78           -2.6407     3.9059     1.6158 H       
  79 H79           -1.7315     6.2628    -1.0496 H       
  80 H80           -1.1207     8.6114    -0.6322 H       
  81 H81           -0.7525     9.3968     1.6723 H       
  82 H82           -0.9960     7.8338     3.5594 H       
  83 H83           -1.6150     5.4873     3.1425 H       
@<TRIPOS>BOND
   1    1    2 1
   2    1    5 1
   3    1    6 am
   4    2    3 1
   5    2    9 1
   6    2   46 1
   7    3    4 1
   8    3   47 1
   9    3   48 1
  10    4    5 1
  11    4   17 1
  12    4   49 1
  13    5   50 1
  14    5   51 1
  15    6    7 2
  16    6    8 1
  17    8   39 1
  18    9   10 1
  19    9   52 1
  20    9   53 1
  21   10   11 1
  22   10   54 1
  23   11   12 ar
  24   11   16 ar
  25   12   13 ar
  26   12   55 1
  27   13   14 ar
  28   13   56 1
  29   14   15 ar
  30   14   57 1
  31   15   16 ar
  32   15   58 1
  33   17   18 1
  34   18   19 1
  35   18   59 1
  36   18   60 1
  37   19   20 am
  38   19   21 2
  39   20   22 1
  40   20   61 1
  41   22   23 1
  42   22   62 1
  43   22   63 1
  44   23   24 1
  45   23   36 1
  46   23   64 1
  47   24   25 am
  48   24   65 1
  49   25   26 1
  50   25   32 2
  51   26   27 ar
  52   26   31 ar
  53   27   28 ar
  54   27   33 1
  55   28   29 ar
  56   28   66 1
  57   29   30 ar
  58   29   67 1
  59   30   31 ar
  60   30   68 1
  61   31   69 1
  62   33   34 1
  63   33   35 1
  64   34   70 1
  65   34   71 1
  66   34   72 1
  67   35   73 1
  68   35   74 1
  69   35   75 1
  70   36   37 2
  71   36   38 1
  72   38   76 1
  73   39   40 1
  74   39   77 1
  75   39   78 1
  76   40   41 ar
  77   40   45 ar
  78   41   42 ar
  79   41   79 1
  80   42   43 ar
  81   42   80 1
  82   43   44 ar
  83   43   81 1
  84   44   45 ar
  85   44   82 1
  86   45   83 1

#	End of record

