#	Name: ASD01812257
#	Creating user name:	WinNT
#	Creation time:	15. 06. 2019 19:28

#	Modifying user name:	WinNT
#	Modification time:	15. 06. 2019 19:28

#	Program:	/corina/corina34_cracker 3.40 0067  02.08.2006

@<TRIPOS>MOLECULE
ASD01812257
  72   77    0    0    0
SMALL
NO_CHARGES


@<TRIPOS>ATOM
   1 C1            -0.0168     1.3896     0.0097 C.ar    
   2 C2             0.0021    -0.0041     0.0020 C.ar    
   3 C3             1.1949    -0.6694    -0.0129 C.ar    
   4 C4             2.3801     0.0896    -0.0201 C.ar    
   5 C5             2.2888     1.5050    -0.0117 C.ar    
   6 N6             1.0882     2.0936     0.0029 N.ar    
   7 C7             3.6422    -0.5284    -0.0349 C.ar    
   8 C8             4.7712     0.2254    -0.0412 C.ar    
   9 C9             4.7001     1.6316    -0.0331 C.ar    
  10 C10            3.4670     2.2625    -0.0189 C.ar    
  11 C11            3.7425    -2.0320    -0.0434 C.3     
  12 C12            5.7518     2.6693    -0.0373 C.2     
  13 N13            5.1985     3.8941    -0.0257 N.am    
  14 C14            3.7387     3.7458    -0.0134 C.3     
  15 O15            6.9468     2.4470    -0.0494 O.2     
  16 C16            5.9298     5.1635    -0.0250 C.3     
  17 C17            6.7980     5.2527    -1.2816 C.3     
  18 C18            7.5617     6.5784    -1.2809 C.3     
  19 C19            8.4525     6.6532    -0.0392 C.3     
  20 C20            7.5843     6.5640     1.2175 C.3     
  21 C21            6.8205     5.2383     1.2167 C.3     
  22 N22            3.5225    -2.5298    -1.4078 N.3     
  23 C23            3.8440    -3.9593    -1.5047 C.3     
  24 C24            3.4666    -4.4754    -2.8951 C.3     
  25 C25            4.2405    -3.6861    -3.9546 C.3     
  26 C26            3.9253    -2.1956    -3.8008 C.3     
  27 C27            4.2895    -1.7457    -2.3842 C.3     
  28 O28            5.9661     5.1828    -2.4414 O.3     
  29 C29            5.6849    -3.9047    -3.7732 C.1     
  30 F30            3.8580    -4.1158    -5.2298 F       
  31 C31            6.8368    -4.0790    -3.6285 C.1     
  32 C32            8.2419    -4.2916    -3.4521 C.ar    
  33 C33            9.1568    -3.6721    -4.3044 C.ar    
  34 C34           10.5093    -3.8808    -4.1287 C.ar    
  35 C35           10.9590    -4.7020    -3.1103 C.ar    
  36 C36           10.0571    -5.3195    -2.2622 C.ar    
  37 C37            8.7023    -5.1146    -2.4236 C.ar    
  38 C38           12.4377    -4.9254    -2.9243 C.3     
  39 H39           -0.9672     1.9026     0.0169 H       
  40 H40           -0.9254    -0.5573     0.0082 H       
  41 H41            1.2277    -1.7489    -0.0187 H       
  42 H42            5.7361    -0.2597    -0.0523 H       
  43 H43            4.7335    -2.3319     0.2974 H       
  44 H44            2.9874    -2.4503     0.6222 H       
  45 H45            3.3074     4.2091    -0.9007 H       
  46 H46            3.3234     4.1995     0.8865 H       
  47 H47            5.2207     5.9913    -0.0138 H       
  48 H48            7.5071     4.4249    -1.2928 H       
  49 H49            8.1803     6.6419    -2.1761 H       
  50 H50            6.8527     7.4062    -1.2697 H       
  51 H51            9.1616     5.8254    -0.0503 H       
  52 H52            8.9966     7.5977    -0.0386 H       
  53 H53            8.2189     6.6173     2.1021 H       
  54 H54            6.8752     7.3918     1.2286 H       
  55 H55            6.2020     5.1748     2.1120 H       
  56 H56            7.5296     4.4105     1.2056 H       
  57 H57            4.9121    -4.1032    -1.3415 H       
  58 H58            3.2839    -4.5096    -0.7487 H       
  59 H59            3.7198    -5.5328    -2.9719 H       
  60 H60            2.3961    -4.3445    -3.0536 H       
  61 H61            4.5062    -1.6242    -4.5248 H       
  62 H62            2.8621    -2.0288    -3.9736 H       
  63 H63            4.0529    -0.6881    -2.2669 H       
  64 H64            5.3554    -1.8999    -2.2169 H       
  65 H65            6.4506     5.2335    -3.2766 H       
  66 H66            8.8069    -3.0311    -5.1000 H       
  67 H67           11.2184    -3.4022    -4.7879 H       
  68 H68           10.4146    -5.9600    -1.4695 H       
  69 H69            7.9992    -5.5972    -1.7609 H       
  70 H70           12.8367    -4.1709    -2.2463 H       
  71 H71           12.6053    -5.9169    -2.5036 H       
  72 H72           12.9407    -4.8499    -3.8884 H       
@<TRIPOS>BOND
   1    1    2 ar
   2    1    6 ar
   3    1   39 1
   4    2    3 ar
   5    2   40 1
   6    3    4 ar
   7    3   41 1
   8    4    5 ar
   9    4    7 ar
  10    5    6 ar
  11    5   10 ar
  12    7    8 ar
  13    7   11 1
  14    8    9 ar
  15    8   42 1
  16    9   10 ar
  17    9   12 1
  18   10   14 1
  19   11   22 1
  20   11   43 1
  21   11   44 1
  22   12   13 am
  23   12   15 2
  24   13   14 1
  25   13   16 1
  26   14   45 1
  27   14   46 1
  28   16   17 1
  29   16   21 1
  30   16   47 1
  31   17   18 1
  32   17   28 1
  33   17   48 1
  34   18   19 1
  35   18   49 1
  36   18   50 1
  37   19   20 1
  38   19   51 1
  39   19   52 1
  40   20   21 1
  41   20   53 1
  42   20   54 1
  43   21   55 1
  44   21   56 1
  45   22   23 1
  46   22   27 1
  47   23   24 1
  48   23   57 1
  49   23   58 1
  50   24   25 1
  51   24   59 1
  52   24   60 1
  53   25   26 1
  54   25   29 1
  55   25   30 1
  56   26   27 1
  57   26   61 1
  58   26   62 1
  59   27   63 1
  60   27   64 1
  61   28   65 1
  62   29   31 3
  63   31   32 1
  64   32   33 ar
  65   32   37 ar
  66   33   34 ar
  67   33   66 1
  68   34   35 ar
  69   34   67 1
  70   35   36 ar
  71   35   38 1
  72   36   37 ar
  73   36   68 1
  74   37   69 1
  75   38   70 1
  76   38   71 1
  77   38   72 1

#	End of record

