#	Name: ASD07932175
#	Creating user name:	WinNT
#	Creation time:	15. 06. 2019 21:14

#	Modifying user name:	WinNT
#	Modification time:	15. 06. 2019 21:14

#	Program:	/corina/corina34_cracker 3.40 0067  02.08.2006

@<TRIPOS>MOLECULE
ASD07932175
  49   50    0    0    0
SMALL
NO_CHARGES


@<TRIPOS>ATOM
   1 N1            -0.0178     1.4625     0.0101 N.pl3   
   2 C2             0.0021    -0.0041     0.0020 C.3     
   3 C3             0.7718    -0.5048     1.2325 C.3     
   4 S4             2.4285     0.2504     1.2124 S.o2    
   5 N5             2.0919     1.8640     0.9683 N.am    
   6 C6             1.1578     2.1624     0.0026 C.2     
   7 C7             2.7573     2.9137     1.7441 C.3     
   8 C8            -1.4106    -0.5271     0.0446 C.ar    
   9 C9             0.6936    -0.4990    -1.2699 C.3     
  10 C10           -1.6808    -1.7398     0.6511 C.ar    
  11 O11            3.0216     0.2000     2.5027 O.2     
  12 O12            3.1487    -0.1441     0.0527 O.2     
  13 C13           -2.4370     0.2083    -0.5176 C.ar    
  14 C14           -3.7331    -0.2715    -0.4785 C.ar    
  15 C15           -4.0022    -1.4868     0.1223 C.ar    
  16 C16           -2.9764    -2.2195     0.6901 C.ar    
  17 N17            1.3895     3.0980    -0.9052 N.2     
  18 O18            0.7026     4.3249    -2.7604 O.3     
  19 C19           -0.3264     4.5641    -3.7227 C.3     
  20 C20           -1.6061     4.9965    -3.0041 C.3     
  21 C21            0.1189     5.6704    -4.6812 C.3     
  22 C22           -0.5938     3.2816    -4.5130 C.3     
  23 C23            0.4665     3.3713    -1.8351 C.2     
  24 O24           -0.5860     2.7598    -1.8463 O.2     
  25 N25           -4.8324     0.5164    -1.0797 N.pl3   
  26 O26           -4.5953     1.5876    -1.6089 O.2     
  27 O27           -5.9742     0.0937    -1.0453 O.2     
  28 H28           -0.8643     1.9361     0.0167 H       
  29 H29            0.2449    -0.2114     2.1405 H       
  30 H30            0.8620    -1.5903     1.1933 H       
  31 H31            3.6679     3.2228     1.2309 H       
  32 H32            2.0893     3.7690     1.8458 H       
  33 H33            3.0096     2.5302     2.7326 H       
  34 H34            1.7160    -0.1220    -1.2978 H       
  35 H35            0.7080    -1.5889    -1.2751 H       
  36 H36            0.1496    -0.1386    -2.1430 H       
  37 H37           -0.8794    -2.3125     1.0939 H       
  38 H38           -2.2267     1.1579    -0.9871 H       
  39 H39           -5.0147    -1.8614     0.1531 H       
  40 H40           -3.1867    -3.1691     1.1597 H       
  41 H41           -1.4156     5.9101    -2.4410 H       
  42 H42           -2.3910     5.1790    -3.7381 H       
  43 H43           -1.9233     4.2083    -2.3212 H       
  44 H44            1.0305     5.3624    -5.1931 H       
  45 H45           -0.6660     5.8529    -5.4152 H       
  46 H46            0.3093     6.5841    -4.1181 H       
  47 H47           -0.9110     2.4935    -3.8301 H       
  48 H48           -1.3787     3.4641    -5.2470 H       
  49 H49            0.3179     2.9736    -5.0249 H       
@<TRIPOS>BOND
   1    1    2 1
   2    1    6 1
   3    1   28 1
   4    2    3 1
   5    2    8 1
   6    2    9 1
   7    3    4 1
   8    3   29 1
   9    3   30 1
  10    4    5 am
  11    4   11 2
  12    4   12 2
  13    5    6 1
  14    5    7 1
  15    6   17 2
  16    7   31 1
  17    7   32 1
  18    7   33 1
  19    8   13 ar
  20    8   10 ar
  21    9   34 1
  22    9   35 1
  23    9   36 1
  24   10   16 ar
  25   10   37 1
  26   13   14 ar
  27   13   38 1
  28   14   15 ar
  29   14   25 1
  30   15   16 ar
  31   15   39 1
  32   16   40 1
  33   17   23 1
  34   18   19 1
  35   18   23 1
  36   19   20 1
  37   19   21 1
  38   19   22 1
  39   20   41 1
  40   20   42 1
  41   20   43 1
  42   21   44 1
  43   21   45 1
  44   21   46 1
  45   22   47 1
  46   22   48 1
  47   22   49 1
  48   23   24 2
  49   25   26 2
  50   25   27 2

#	End of record

