#	Name: ASD05740226
#	Creating user name:	WinNT
#	Creation time:	15. 06. 2019 21:03

#	Modifying user name:	WinNT
#	Modification time:	15. 06. 2019 21:03

#	Program:	/corina/corina34_cracker 3.40 0067  02.08.2006

@<TRIPOS>MOLECULE
ASD05740226
  65   70    0    0    0
SMALL
NO_CHARGES


@<TRIPOS>ATOM
   1 C1             1.5290    -2.8070     0.4182 C.3     
   2 N2             0.7276    -1.9214     1.2744 N.3     
   3 C3            -0.6386    -2.1893     1.1334 C.ar    
   4 C4            -1.5684    -1.4575     1.8605 C.ar    
   5 C5            -2.9164    -1.7219     1.7214 C.ar    
   6 C6            -3.3425    -2.7198     0.8547 C.ar    
   7 C7            -2.4128    -3.4519     0.1280 C.ar    
   8 C8            -1.0651    -3.1831     0.2621 C.ar    
   9 N9            -4.7100    -2.9883     0.7140 N.pl3   
  10 C10           -5.6268    -1.9576     0.7830 C.ar    
  11 N11           -5.1835    -0.7195     0.9721 N.ar    
  12 N12           -6.9147    -2.2403     0.6528 N.ar    
  13 C13           -7.8230    -1.2752     0.7138 C.ar    
  14 C14           -7.3890     0.0530     0.9195 C.ar    
  15 C15           -6.0177     0.3022     1.0456 C.ar    
  16 N16           -9.1625    -1.5363     0.5822 N.am    
  17 C17          -10.0697    -0.5456     0.6463 C.2     
  18 C18           -9.6909     0.7968     0.8493 C.2     
  19 C19           -8.3792     1.1232     0.9884 C.2     
  20 C20           -9.6119    -2.9142     0.3684 C.3     
  21 O21          -11.2520    -0.8159     0.5249 O.2     
  22 C22           -9.7148    -3.6207     1.6956 C.ar    
  23 C23           -9.9718    -4.9914     1.7401 C.ar    
  24 C24            1.1440    -2.0336     2.6793 C.3     
  25 C25            2.6223    -1.6567     2.8021 C.3     
  26 N26            3.4237    -2.5423     1.9458 N.3     
  27 C27            3.0073    -2.4300     0.5410 C.3     
  28 C28          -10.0656    -5.6384     2.9735 C.ar    
  29 C29           -9.9040    -4.9203     4.1402 C.ar    
  30 C30           -9.6493    -3.5613     4.0903 C.ar    
  31 C31           -9.5493    -2.9141     2.8705 C.ar    
  32 C32          -10.1445    -5.7553     0.4862 C.2     
  33 C33            4.8579    -2.2611     2.0939 C.3     
  34 S34          -11.2839    -5.3611    -0.7945 S.3     
  35 Cl35          -9.2295    -1.2086     2.8182 Cl      
  36 C36          -10.7495    -6.7453    -1.7385 C.2     
  37 C37           -9.7908    -7.4001    -1.0772 C.2     
  38 C38           -9.4491    -6.8583     0.1448 C.2     
  39 H39            1.3900    -3.8411     0.7335 H       
  40 H40            1.2105    -2.6966    -0.6183 H       
  41 H41           -1.2371    -0.6819     2.5351 H       
  42 H42           -3.6395    -1.1528     2.2869 H       
  43 H43           -2.7441    -4.2284    -0.5455 H       
  44 H44           -0.3421    -3.7524    -0.3031 H       
  45 H45           -5.0132    -3.8981     0.5680 H       
  46 H46           -5.6504     1.3054     1.2040 H       
  47 H47          -10.4454     1.5682     0.8950 H       
  48 H48           -8.0770     2.1482     1.1447 H       
  49 H49          -10.5884    -2.9068    -0.1159 H       
  50 H50           -8.8955    -3.4357    -0.2663 H       
  51 H51            0.5448    -1.3594     3.2912 H       
  52 H52            1.0006    -3.0590     3.0203 H       
  53 H53            2.7613    -0.6226     2.4868 H       
  54 H54            2.9409    -1.7671     3.8386 H       
  55 H55            3.6065    -3.1043    -0.0709 H       
  56 H56            3.1507    -1.4047     0.2000 H       
  57 H57          -10.2647    -6.6991     3.0142 H       
  58 H58           -9.9768    -5.4201     5.0948 H       
  59 H59           -9.5240    -3.0038     5.0068 H       
  60 H60            5.1535    -2.4167     3.1314 H       
  61 H61            5.4278    -2.9304     1.4494 H       
  62 H62            5.0566    -1.2274     1.8107 H       
  63 H63          -11.1382    -7.0243    -2.7067 H       
  64 H64           -9.3155    -8.2859    -1.4720 H       
  65 H65           -8.6896    -7.2884     0.7809 H       
@<TRIPOS>BOND
   1    1    2 1
   2    1   27 1
   3    1   39 1
   4    1   40 1
   5    2    3 1
   6    2   24 1
   7    3    4 ar
   8    3    8 ar
   9    4    5 ar
  10    4   41 1
  11    5    6 ar
  12    5   42 1
  13    6    7 ar
  14    6    9 1
  15    7    8 ar
  16    7   43 1
  17    8   44 1
  18    9   10 1
  19    9   45 1
  20   10   11 ar
  21   10   12 ar
  22   11   15 ar
  23   12   13 ar
  24   13   14 ar
  25   13   16 1
  26   14   15 ar
  27   14   19 1
  28   15   46 1
  29   16   17 am
  30   16   20 1
  31   17   18 1
  32   17   21 2
  33   18   19 2
  34   18   47 1
  35   19   48 1
  36   20   22 1
  37   20   49 1
  38   20   50 1
  39   22   23 ar
  40   22   31 ar
  41   23   28 ar
  42   23   32 1
  43   24   25 1
  44   24   51 1
  45   24   52 1
  46   25   26 1
  47   25   53 1
  48   25   54 1
  49   26   27 1
  50   26   33 1
  51   27   55 1
  52   27   56 1
  53   28   29 ar
  54   28   57 1
  55   29   30 ar
  56   29   58 1
  57   30   31 ar
  58   30   59 1
  59   31   35 1
  60   32   34 1
  61   32   38 2
  62   33   60 1
  63   33   61 1
  64   33   62 1
  65   34   36 1
  66   36   37 2
  67   36   63 1
  68   37   38 1
  69   37   64 1
  70   38   65 1

#	End of record

