#	Name: ASD01410959
#	Creating user name:	WinNT
#	Creation time:	15. 06. 2019 19:19

#	Modifying user name:	WinNT
#	Modification time:	15. 06. 2019 19:19

#	Program:	/corina/corina34_cracker 3.40 0067  02.08.2006

@<TRIPOS>MOLECULE
ASD01410959
  38   39    0    0    0
SMALL
NO_CHARGES


@<TRIPOS>ATOM
   1 C1            -0.0225     1.8097     0.0120 C.2     
   2 P2             0.0021    -0.0041     0.0020 P.3     
   3 N3             1.5555    -0.5296    -0.0156 N.pl3   
   4 O4            -0.6773    -0.5133     1.2143 O.2     
   5 C5             2.4180    -0.1873     1.0221 C.2     
   6 C6             3.7310    -0.5959     1.0660 C.2     
   7 S7             4.4956     0.0314     2.5196 S.3     
   8 C8             3.0047     0.8228     3.0102 C.2     
   9 C9             2.0306     0.5928     2.0868 C.2     
  10 C10            4.3671    -1.3966     0.0925 C.2     
  11 O11            3.7451    -1.7804    -0.8812 O.2     
  12 O12            5.6653    -1.7367     0.2414 O.3     
  13 C13            2.8351     1.6243     4.2402 C.ar    
  14 C14            3.9080     1.7998     5.1159 C.ar    
  15 C15            3.7435     2.5488     6.2623 C.ar    
  16 C16            2.5169     3.1258     6.5457 C.ar    
  17 C17            1.4487     2.9549     5.6811 C.ar    
  18 C18            1.6028     2.2136     4.5282 C.ar    
  19 O19           -0.7621    -0.5439    -1.3082 O.3     
  20 C20           -2.1344    -0.2555    -1.5831 C.3     
  21 Cl21           2.3175     4.0668     7.9908 Cl      
  22 C22           -2.5409    -0.9184    -2.9008 C.3     
  23 C23            1.1029     2.4801     0.0048 C.2     
  24 H24           -0.9651     2.3370     0.0193 H       
  25 H25            1.8733    -1.0790    -0.7492 H       
  26 H26            1.0307     0.9890     2.1846 H       
  27 H27            6.0126    -2.2858    -0.4748 H       
  28 H28            4.8649     1.3496     4.8963 H       
  29 H29            4.5729     2.6853     6.9405 H       
  30 H30            0.4944     3.4071     5.9076 H       
  31 H31            0.7704     2.0853     3.8521 H       
  32 H32           -2.7557    -0.6418    -0.7752 H       
  33 H33           -2.2702     0.8231    -1.6620 H       
  34 H34           -3.5876    -0.6984    -3.1104 H       
  35 H35           -1.9195    -0.5321    -3.7087 H       
  36 H36           -2.4051    -1.9970    -2.8219 H       
  37 H37            2.0454     1.9529    -0.0070 H       
  38 H38            1.0883     3.5600     0.0108 H       
@<TRIPOS>BOND
   1    1    2 1
   2    1   23 2
   3    1   24 1
   4    2    3 1
   5    2    4 2
   6    2   19 1
   7    3    5 1
   8    3   25 1
   9    5    6 2
  10    5    9 1
  11    6    7 1
  12    6   10 1
  13    7    8 1
  14    8    9 2
  15    8   13 1
  16    9   26 1
  17   10   11 2
  18   10   12 1
  19   12   27 1
  20   13   14 ar
  21   13   18 ar
  22   14   15 ar
  23   14   28 1
  24   15   16 ar
  25   15   29 1
  26   16   17 ar
  27   16   21 1
  28   17   18 ar
  29   17   30 1
  30   18   31 1
  31   19   20 1
  32   20   22 1
  33   20   32 1
  34   20   33 1
  35   22   34 1
  36   22   35 1
  37   22   36 1
  38   23   37 1
  39   23   38 1

#	End of record

