#	Name: ASD01915645
#	Creating user name:	WinNT
#	Creation time:	15. 06. 2019 20:05

#	Modifying user name:	WinNT
#	Modification time:	15. 06. 2019 20:05

#	Program:	/corina/corina34_cracker 3.40 0067  02.08.2006

@<TRIPOS>MOLECULE
ASD01915645
  46   49    0    0    0
SMALL
NO_CHARGES


@<TRIPOS>ATOM
   1 C1            -0.0043     1.4622     0.2148 C.2     
   2 N2             0.0608     0.1084    -0.0285 N.pl3   
   3 C3            -1.1523    -0.6759    -0.2889 C.3     
   4 C4            -2.3301    -0.0458     0.4526 C.3     
   5 N5            -2.4043     1.3988     0.2637 N.am    
   6 C6            -1.2914     2.1718     0.2647 C.2     
   7 C7             1.2787     1.8994     0.3886 C.2     
   8 C8             2.0743     0.7543     0.2488 C.2     
   9 N9             1.2805    -0.2633     0.0088 N.2     
  10 C10            3.5766     0.7006     0.3544 C.3     
  11 O11            4.0824     2.0099     0.6227 O.3     
  12 C12            5.4296     2.1372     0.7481 C.ar    
  13 O13           -1.3535     3.3858     0.3052 O.2     
  14 C14            5.9888     3.3798     1.0088 C.ar    
  15 C15            6.2475     1.0238     0.6215 C.ar    
  16 C16            7.6166     1.1559     0.7494 C.ar    
  17 C17            8.1720     2.3964     1.0035 C.ar    
  18 C18            7.3585     3.5066     1.1359 C.ar    
  19 C19           -3.6481     1.9975     0.0774 C.ar    
  20 N20           -3.7244     3.2611    -0.3203 N.ar    
  21 C21           -4.8122     1.2696     0.3025 C.ar    
  22 N22           -5.9912     1.8372     0.1259 N.ar    
  23 C23           -6.0692     3.0966    -0.2647 C.ar    
  24 C24           -4.9102     3.8273    -0.4965 C.ar    
  25 C25           -2.1890    -0.3423     1.9470 C.3     
  26 O26           -4.9920     5.1209    -0.8972 O.3     
  27 C27           -3.7602     5.8112    -1.1168 C.3     
  28 H28           -1.3581    -0.6831    -1.3593 H       
  29 H29           -1.0068    -1.6980     0.0610 H       
  30 H30           -3.2549    -0.4962     0.0920 H       
  31 H31            1.6080     2.9081     0.5898 H       
  32 H32            3.8601     0.0286     1.1645 H       
  33 H33            3.9940     0.3350    -0.5838 H       
  34 H34            5.3539     4.2473     1.1119 H       
  35 H35            5.8142     0.0546     0.4233 H       
  36 H36            8.2538     0.2894     0.6512 H       
  37 H37            9.2426     2.4975     1.1032 H       
  38 H38            7.7947     4.4745     1.3340 H       
  39 H39           -4.7515     0.2396     0.6215 H       
  40 H40           -7.0352     3.5578    -0.4086 H       
  41 H41           -1.2535     0.0795     2.3144 H       
  42 H42           -3.0250     0.1031     2.4862 H       
  43 H43           -2.1881    -1.4208     2.1049 H       
  44 H44           -3.1827     5.8269    -0.1925 H       
  45 H45           -3.1904     5.2997    -1.8926 H       
  46 H46           -3.9679     6.8335    -1.4329 H       
@<TRIPOS>BOND
   1    1    2 1
   2    1    7 2
   3    1    6 1
   4    2    3 1
   5    2    9 1
   6    3    4 1
   7    3   28 1
   8    3   29 1
   9    4    5 1
  10    4   25 1
  11    4   30 1
  12    5    6 am
  13    5   19 1
  14    6   13 2
  15    7    8 1
  16    7   31 1
  17    8    9 2
  18    8   10 1
  19   10   11 1
  20   10   32 1
  21   10   33 1
  22   11   12 1
  23   12   14 ar
  24   12   15 ar
  25   14   18 ar
  26   14   34 1
  27   15   16 ar
  28   15   35 1
  29   16   17 ar
  30   16   36 1
  31   17   18 ar
  32   17   37 1
  33   18   38 1
  34   19   20 ar
  35   19   21 ar
  36   20   24 ar
  37   21   22 ar
  38   21   39 1
  39   22   23 ar
  40   23   24 ar
  41   23   40 1
  42   24   26 1
  43   25   41 1
  44   25   42 1
  45   25   43 1
  46   26   27 1
  47   27   44 1
  48   27   45 1
  49   27   46 1

#	End of record

