#	Name: ASD01881402
#	Creating user name:	WinNT
#	Creation time:	15. 06. 2019 19:42

#	Modifying user name:	WinNT
#	Modification time:	15. 06. 2019 19:42

#	Program:	/corina/corina34_cracker 3.40 0067  02.08.2006

@<TRIPOS>MOLECULE
ASD01881402
  45   48    0    0    0
SMALL
NO_CHARGES


@<TRIPOS>ATOM
   1 Cl1           -0.3747    -2.3364     1.2026 Cl      
   2 C2             0.0577     1.4295    -0.6161 C.ar    
   3 C3             0.1013     0.0688    -0.8366 C.ar    
   4 C4             1.1990     2.1050    -0.2068 C.ar    
   5 C5             2.3896     1.4132    -0.0181 C.ar    
   6 C6             2.4399     0.0522    -0.2369 C.ar    
   7 C7             1.2939    -0.6292    -0.6479 C.ar    
   8 C8             1.3438    -2.0909    -0.8835 C.2     
   9 C9             0.6122    -2.9524    -0.0860 C.2     
  10 C10            2.1364    -2.6199    -1.9312 C.2     
  11 C11            2.1805    -3.9483    -2.1436 C.2     
  12 N12            1.4658    -4.8069    -1.3582 N.pl3   
  13 C13            0.6804    -4.3348    -0.3346 C.2     
  14 C14            1.3231    -6.1609    -1.3418 C.2     
  15 N15            0.5074    -6.4594    -0.3637 N.2     
  16 N16            0.1207    -5.3896     0.2377 N.2     
  17 C17            1.9842    -7.1377    -2.2798 C.3     
  18 Cl18           3.8147     2.2627     0.4928 Cl      
  19 O19            1.1524     3.4457     0.0095 O.3     
  20 C20           -0.1275     4.0741    -0.0859 C.3     
  21 C21           -0.1328     5.3558     0.7529 C.3     
  22 C22           -0.4148     4.4322    -1.5472 C.3     
  23 C23           -1.7511     5.1747    -1.6293 C.3     
  24 O24           -1.6990     6.3393    -0.8028 O.3     
  25 C25           -1.4800     6.0626     0.5820 C.3     
  26 C26            3.3288    -7.5754    -1.6957 C.3     
  27 F27            3.1212    -8.1878    -0.4552 F       
  28 F28            3.9425    -8.4822    -2.5666 F       
  29 F29            4.1523    -6.4564    -1.5314 F       
  30 H30           -0.8646     1.9709    -0.7664 H       
  31 H31           -0.7875    -0.4559    -1.1547 H       
  32 H32            3.3652    -0.4852    -0.0906 H       
  33 H33            2.7074    -1.9549    -2.5622 H       
  34 H34            2.7885    -4.3401    -2.9456 H       
  35 H35            1.3426    -8.0095    -2.4079 H       
  36 H36            2.1459    -6.6605    -3.2464 H       
  37 H37           -0.8958     3.3943     0.2822 H       
  38 H38            0.0161     5.1045     1.8031 H       
  39 H39            0.6689     6.0139     0.4177 H       
  40 H40            0.3812     5.0716    -1.9289 H       
  41 H41           -0.4677     3.5203    -2.1421 H       
  42 H42           -1.9403     5.4696    -2.6614 H       
  43 H43           -2.5522     4.5204    -1.2853 H       
  44 H44           -2.2775     5.4200     0.9549 H       
  45 H45           -1.4739     6.9973     1.1429 H       
@<TRIPOS>BOND
   1    1    9 1
   2    2    3 ar
   3    2    4 ar
   4    2   30 1
   5    3    7 ar
   6    3   31 1
   7    4    5 ar
   8    4   19 1
   9    5    6 ar
  10    5   18 1
  11    6    7 ar
  12    6   32 1
  13    7    8 1
  14    8    9 2
  15    8   10 1
  16    9   13 1
  17   10   11 2
  18   10   33 1
  19   11   12 1
  20   11   34 1
  21   12   13 1
  22   12   14 1
  23   13   16 2
  24   14   15 2
  25   14   17 1
  26   15   16 1
  27   17   26 1
  28   17   35 1
  29   17   36 1
  30   19   20 1
  31   20   21 1
  32   20   22 1
  33   20   37 1
  34   21   25 1
  35   21   38 1
  36   21   39 1
  37   22   23 1
  38   22   40 1
  39   22   41 1
  40   23   24 1
  41   23   42 1
  42   23   43 1
  43   24   25 1
  44   25   44 1
  45   25   45 1
  46   26   27 1
  47   26   28 1
  48   26   29 1

#	End of record

