#	Name: ASD00170742
#	Creating user name:	WinNT
#	Creation time:	15. 06. 2019 18:32

#	Modifying user name:	WinNT
#	Modification time:	15. 06. 2019 18:32

#	Program:	/corina/corina34_cracker 3.40 0067  02.08.2006

@<TRIPOS>MOLECULE
ASD00170742
  36   38    0    0    0
SMALL
NO_CHARGES


@<TRIPOS>ATOM
   1 C1             0.0788     1.9988    -0.6247 C.ar    
   2 C2             0.2722     0.6292    -0.6317 C.ar    
   3 C3            -0.8017    -0.2275    -0.4667 C.ar    
   4 C4            -2.0728     0.2805    -0.2941 C.ar    
   5 C5            -2.2740     1.6604    -0.2857 C.ar    
   6 C6            -1.1873     2.5187    -0.4471 C.ar    
   7 C7            -3.6370     2.2125    -0.1006 C.2     
   8 C8            -3.9339     3.1686     0.7854 C.2     
   9 C9            -4.7932     1.7762    -0.8681 C.2     
  10 C10           -5.9440     2.4368    -0.5143 C.2     
  11 S11           -5.6405     3.5694     0.7218 S.3     
  12 N12           -7.1801     2.2152    -1.0857 N.pl3   
  13 C13           -4.7361     0.7468    -1.9036 C.2     
  14 C14           -4.3436     1.1069    -3.2834 C.ar    
  15 O15           -5.0118    -0.4076    -1.6306 O.2     
  16 C16           -4.1799     0.1109    -4.2478 C.ar    
  17 C17           -3.8137     0.4527    -5.5326 C.ar    
  18 C18           -3.6086     1.7811    -5.8671 C.ar    
  19 C19           -3.7691     2.7736    -4.9143 C.ar    
  20 C20           -4.1410     2.4444    -3.6278 C.ar    
  21 Cl21          -3.1478     2.2037    -7.4866 Cl      
  22 C22            1.2537     2.9251    -0.8050 C.3     
  23 F23            2.4222     2.1716    -0.9595 F       
  24 F24            1.0544     3.7150    -1.9424 F       
  25 F25            1.3750     3.7487     0.3193 F       
  26 H26            1.2653     0.2270    -0.7668 H       
  27 H27           -0.6447    -1.2960    -0.4734 H       
  28 H28           -2.9104    -0.3891    -0.1661 H       
  29 H29           -1.3371     3.5883    -0.4411 H       
  30 H30           -3.2198     3.6315     1.4504 H       
  31 H31           -7.2649     1.6095    -1.8386 H       
  32 H32           -7.9645     2.6652    -0.7346 H       
  33 H33           -4.3392    -0.9252    -3.9881 H       
  34 H34           -3.6864    -0.3170    -6.2795 H       
  35 H35           -3.6071     3.8076    -5.1806 H       
  36 H36           -4.2660     3.2191    -2.8858 H       
@<TRIPOS>BOND
   1    1    2 ar
   2    1   22 1
   3    1    6 ar
   4    2    3 ar
   5    2   26 1
   6    3    4 ar
   7    3   27 1
   8    4    5 ar
   9    4   28 1
  10    5    6 ar
  11    5    7 1
  12    6   29 1
  13    7    9 1
  14    7    8 2
  15    8   11 1
  16    8   30 1
  17    9   10 2
  18    9   13 1
  19   10   11 1
  20   10   12 1
  21   12   31 1
  22   12   32 1
  23   13   14 1
  24   13   15 2
  25   14   16 ar
  26   14   20 ar
  27   16   17 ar
  28   16   33 1
  29   17   18 ar
  30   17   34 1
  31   18   19 ar
  32   18   21 1
  33   19   20 ar
  34   19   35 1
  35   20   36 1
  36   22   23 1
  37   22   24 1
  38   22   25 1

#	End of record

