#	Name: ASD01580010
#	Creating user name:	WinNT
#	Creation time:	15. 06. 2019 19:22

#	Modifying user name:	WinNT
#	Modification time:	15. 06. 2019 19:22

#	Program:	/corina/corina34_cracker 3.40 0067  02.08.2006

@<TRIPOS>MOLECULE
ASD01580010
  23   23    0    0    0
SMALL
NO_CHARGES


@<TRIPOS>ATOM
   1 C1            -0.0184     1.5028     0.0103 C.2     
   2 N2             1.3055    -0.4734    -0.4867 N.3     
   3 C3             0.0021    -0.0041     0.0020 C.3     
   4 C4            -0.2279    -0.5251     1.4221 C.3     
   5 C5            -0.3300    -2.0284     1.3953 C.2     
   6 C6             0.4140    -2.8851     2.1205 C.2     
   7 N7            -0.0031    -4.1470     1.7931 N.pl3   
   8 C8            -0.9883    -4.0174     0.8785 C.2     
   9 N9            -1.1817    -2.7473     0.6492 N.2     
  10 O10            1.0197     2.1211     0.0037 O.2     
  11 O11           -1.1898     2.1580     0.0194 O.3     
  12 C12            0.5211    -5.4036     2.3338 C.3     
  13 H13            2.0536    -0.1430     0.1043 H       
  14 H14            1.3222    -1.4794    -0.5627 H       
  15 H15           -0.7864    -0.3745    -0.6531 H       
  16 H16            0.6068    -0.2288     2.0574 H       
  17 H17           -1.1526    -0.1051     1.8179 H       
  18 H18            1.1908    -2.6263     2.8248 H       
  19 H19           -1.5292    -4.8300     0.4165 H       
  20 H20           -1.1523     3.1243     0.0245 H       
  21 H21           -0.0452    -5.6809     3.2229 H       
  22 H22            0.4276    -6.1890     1.5838 H       
  23 H23            1.5711    -5.2758     2.5971 H       
@<TRIPOS>BOND
   1    1    3 1
   2    1   10 2
   3    1   11 1
   4    2    3 1
   5    2   13 1
   6    2   14 1
   7    3    4 1
   8    3   15 1
   9    4    5 1
  10    4   16 1
  11    4   17 1
  12    5    6 2
  13    5    9 1
  14    6    7 1
  15    6   18 1
  16    7    8 1
  17    7   12 1
  18    8    9 2
  19    8   19 1
  20   11   20 1
  21   12   21 1
  22   12   22 1
  23   12   23 1

#	End of record

