#	Name: ASD03330900
#	Creating user name:	WinNT
#	Creation time:	15. 06. 2019 20:38

#	Modifying user name:	WinNT
#	Modification time:	15. 06. 2019 20:38

#	Program:	/corina/corina34_cracker 3.40 0067  02.08.2006

@<TRIPOS>MOLECULE
ASD03330900
  59   61    0    0    0
SMALL
NO_CHARGES


@<TRIPOS>ATOM
   1 N1            -0.2543     1.1907    -0.6678 N.pl3   
   2 C2            -0.3072    -0.1387    -0.3894 C.2     
   3 C3             0.8815    -1.0368    -0.1667 C.3     
   4 N4             1.8124    -0.3822     0.7658 N.3     
   5 C5             2.7709     0.4635     0.0518 C.3     
   6 C6             2.1304     1.0922    -1.1825 C.3     
   7 C7             0.9677     1.9946    -0.7605 C.3     
   8 C8            -1.5374     1.6257    -0.8292 C.2     
   9 N9            -2.3500     0.6129    -0.6407 N.2     
  10 C10           -1.6225    -0.4912    -0.3645 C.2     
  11 C11           -2.1563    -1.8362    -0.0860 C.2     
  12 O12           -1.3957    -2.7554     0.1503 O.2     
  13 N13           -3.4873    -2.0477    -0.0932 N.am    
  14 C14            2.5045    -1.3729     1.6009 C.3     
  15 C15           -3.2152     3.2703    -1.6740 C.ar    
  16 C16           -1.9446     3.0091    -1.1605 C.ar    
  17 C17           -1.0621     4.0762    -0.9637 C.ar    
  18 C18           -1.4925     5.3530    -1.2897 C.ar    
  19 C19           -2.7705     5.5281    -1.7949 C.ar    
  20 N20           -3.5794     4.5007    -1.9695 N.ar    
  21 F21           -0.6751     6.4146    -1.1163 F       
  22 C22           -5.3752    -3.5289    -0.4554 C.2     
  23 C23           -4.0180    -3.3849     0.1836 C.3     
  24 C24           -4.1430    -3.5810     1.6959 C.3     
  25 C25           -5.1662    -2.5908     2.2557 C.3     
  26 O26           -6.0566    -2.5466    -0.6598 O.2     
  27 N27           -5.8318    -4.7493    -0.7998 N.am    
  28 C28           -7.1946    -4.9030    -1.3149 C.3     
  29 C29           -4.6035    -5.0104     1.9885 C.3     
  30 C30           -2.7841    -3.3378     2.3557 C.3     
  31 H31            0.5480    -1.9843     0.2566 H       
  32 H32            1.3845    -1.2178    -1.1166 H       
  33 H33            3.1165     1.2541     0.7179 H       
  34 H34            3.6231    -0.1423    -0.2562 H       
  35 H35            2.8744     1.6848    -1.7147 H       
  36 H36            1.7586     0.3050    -1.8385 H       
  37 H37            0.8304     2.7823    -1.5012 H       
  38 H38            1.1856     2.4397     0.2103 H       
  39 H39           -4.0939    -1.3146    -0.2817 H       
  40 H40            3.0117    -2.0959     0.9621 H       
  41 H41            3.2368    -0.8686     2.2315 H       
  42 H42            1.7786    -1.8893     2.2290 H       
  43 H43           -3.9050     2.4551    -1.8351 H       
  44 H44           -0.0712     3.9099    -0.5677 H       
  45 H45           -3.1097     6.5212    -2.0501 H       
  46 H46           -3.3422    -4.1359    -0.2255 H       
  47 H47           -6.1343    -2.7640     1.7857 H       
  48 H48           -5.2552    -2.7305     3.3331 H       
  49 H49           -4.8381    -1.5724     2.0473 H       
  50 H50           -5.2581    -5.5259    -0.7066 H       
  51 H51           -7.9072    -4.5569    -0.5663 H       
  52 H52           -7.3079    -4.3131    -2.2245 H       
  53 H53           -7.3827    -5.9534    -1.5373 H       
  54 H54           -3.8381    -5.7132     1.6595 H       
  55 H55           -4.7677    -5.1271     3.0597 H       
  56 H56           -5.5329    -5.2091     1.4547 H       
  57 H57           -2.4560    -2.3195     2.1472 H       
  58 H58           -2.8732    -3.4775     3.4330 H       
  59 H59           -2.0552    -4.0433     1.9568 H       
@<TRIPOS>BOND
   1    1    2 1
   2    1    7 1
   3    1    8 1
   4    2    3 1
   5    2   10 2
   6    3    4 1
   7    3   31 1
   8    3   32 1
   9    4    5 1
  10    4   14 1
  11    5    6 1
  12    5   33 1
  13    5   34 1
  14    6    7 1
  15    6   35 1
  16    6   36 1
  17    7   37 1
  18    7   38 1
  19    8    9 2
  20    8   16 1
  21    9   10 1
  22   10   11 1
  23   11   12 2
  24   11   13 am
  25   13   23 1
  26   13   39 1
  27   14   40 1
  28   14   41 1
  29   14   42 1
  30   15   16 ar
  31   15   20 ar
  32   15   43 1
  33   16   17 ar
  34   17   18 ar
  35   17   44 1
  36   18   19 ar
  37   18   21 1
  38   19   20 ar
  39   19   45 1
  40   22   26 2
  41   22   27 am
  42   22   23 1
  43   23   24 1
  44   23   46 1
  45   24   25 1
  46   24   29 1
  47   24   30 1
  48   25   47 1
  49   25   48 1
  50   25   49 1
  51   27   28 1
  52   27   50 1
  53   28   51 1
  54   28   52 1
  55   28   53 1
  56   29   54 1
  57   29   55 1
  58   29   56 1
  59   30   57 1
  60   30   58 1
  61   30   59 1

#	End of record

