#	Name: ASD01001022
#	Creating user name:	WinNT
#	Creation time:	15. 06. 2019 18:54

#	Modifying user name:	WinNT
#	Modification time:	15. 06. 2019 18:54

#	Program:	/corina/corina34_cracker 3.40 0067  02.08.2006

@<TRIPOS>MOLECULE
ASD01001022
  44   46    0    0    0
SMALL
NO_CHARGES


@<TRIPOS>ATOM
   1 C1             1.7828     1.4494    -0.1224 C.ar    
   2 C2             1.2233     0.1994     0.0659 C.ar    
   3 C3             3.1432     1.5730    -0.3342 C.ar    
   4 C4             2.0243    -0.9270     0.0423 C.ar    
   5 C5             3.9442     0.4466    -0.3578 C.ar    
   6 C6             3.3847    -0.8034    -0.1700 C.ar    
   7 C7             1.4146    -2.2896     0.2486 C.3     
   8 C8             2.4763    -3.2486     0.7221 C.ar    
   9 S9             0.0992    -2.1814     1.4930 S.3     
  10 C10            2.8023    -3.3113     2.0639 C.ar    
  11 C11            3.1202    -4.0696    -0.1847 C.ar    
  12 C12            3.7763    -4.1909     2.4982 C.ar    
  13 C13            4.0941    -4.9493     0.2496 C.ar    
  14 C14            4.4238    -5.0082     1.5907 C.ar    
  15 C15           -0.4583    -3.9006     1.6481 C.3     
  16 C16           -1.4882    -4.0031     2.7749 C.3     
  17 N17           -2.6880    -3.2367     2.4128 N.3     
  18 H18           -3.1012    -3.5917     1.5635 H       
  19 H19           -3.3576    -3.2353     3.1676 H       
  20 C20            0.8359    -2.7832    -1.0524 C.2     
  21 S21            0.6908    -1.8305    -2.5238 S.3     
  22 C22           -0.0346    -3.1916    -3.3691 C.2     
  23 C23           -0.1242    -4.2350    -2.5430 C.2     
  24 C24            0.3607    -4.0111    -1.2659 C.2     
  25 C25           -1.8599    -5.4483     2.9858 C.2     
  26 O26           -2.8845    -5.8833     2.5158 O.2     
  27 O27           -1.0528    -6.2521     3.6958 O.3     
  28 H28            1.1563     2.3290    -0.1084 H       
  29 H29            0.1605     0.1029     0.2318 H       
  30 H30            3.5802     2.5495    -0.4816 H       
  31 H31            5.0069     0.5431    -0.5240 H       
  32 H32            4.0106    -1.6834    -0.1877 H       
  33 H33            2.2964    -2.6727     2.7730 H       
  34 H34            2.8621    -4.0240    -1.2325 H       
  35 H35            4.0315    -4.2393     3.5465 H       
  36 H36            4.5969    -5.5909    -0.4589 H       
  37 H37            5.1847    -5.6954     1.9300 H       
  38 H38           -0.9124    -4.2213     0.7105 H       
  39 H39            0.3946    -4.5399     1.8762 H       
  40 H40           -1.0629    -3.5996     3.6937 H       
  41 H41           -0.3584    -3.1837    -4.3994 H       
  42 H42           -0.5401    -5.1838    -2.8484 H       
  43 H43            0.3489    -4.7710    -0.4985 H       
  44 H44           -1.3333    -7.1712     3.8041 H       
@<TRIPOS>BOND
   1    1    2 ar
   2    1    3 ar
   3    1   28 1
   4    2    4 ar
   5    2   29 1
   6    3    5 ar
   7    3   30 1
   8    4    6 ar
   9    4    7 1
  10    5    6 ar
  11    5   31 1
  12    6   32 1
  13    7    8 1
  14    7    9 1
  15    7   20 1
  16    8   10 ar
  17    8   11 ar
  18    9   15 1
  19   10   12 ar
  20   10   33 1
  21   11   13 ar
  22   11   34 1
  23   12   14 ar
  24   12   35 1
  25   13   14 ar
  26   13   36 1
  27   14   37 1
  28   15   16 1
  29   15   38 1
  30   15   39 1
  31   16   17 1
  32   16   25 1
  33   16   40 1
  34   17   18 1
  35   17   19 1
  36   20   21 1
  37   20   24 2
  38   21   22 1
  39   22   23 2
  40   22   41 1
  41   23   24 1
  42   23   42 1
  43   24   43 1
  44   25   26 2
  45   25   27 1
  46   27   44 1

#	End of record

