#	Name: ASD03332116
#	Creating user name:	WinNT
#	Creation time:	15. 06. 2019 20:40

#	Modifying user name:	WinNT
#	Modification time:	15. 06. 2019 20:40

#	Program:	/corina/corina34_cracker 3.40 0067  02.08.2006

@<TRIPOS>MOLECULE
ASD03332116
  63   65    0    0    0
SMALL
NO_CHARGES


@<TRIPOS>ATOM
   1 C1             0.1020     1.1116     0.6801 C.2     
   2 N2             0.3180    -0.2267     0.7783 N.pl3   
   3 C3             1.6619    -0.4154     0.9179 C.2     
   4 N4             2.2507     0.7575     0.9256 N.2     
   5 C5             1.3153     1.7217     0.7837 C.2     
   6 C6             1.5633     3.1739     0.7476 C.2     
   7 O7             0.6335     3.9464     0.6141 O.2     
   8 N8             2.8205     3.6459     0.8624 N.am    
   9 C9             3.0671     5.0895     0.8265 C.3     
  10 C10            4.4991     5.3508     0.3555 C.3     
  11 C11            4.6441     4.9131    -1.1033 C.3     
  12 C12            2.8790     5.6658     2.2062 C.2     
  13 O13            2.5695     4.9418     3.1287 O.2     
  14 C14           -0.7212    -1.2596     0.7541 C.3     
  15 C15           -1.6789    -0.9809    -0.4086 C.3     
  16 C16           -2.7864    -0.0377     0.0499 C.3     
  17 N17           -2.2881     0.9173     1.0418 N.3     
  18 C18           -1.2356     1.7747     0.4769 C.3     
  19 C19            2.3420    -1.7235     1.0402 C.ar    
  20 C20            1.6877    -2.7991     1.6421 C.ar    
  21 C21            2.3254    -4.0172     1.7536 C.ar    
  22 C22            3.6128    -4.1751     1.2697 C.ar    
  23 C23            4.2690    -3.1104     0.6709 C.ar    
  24 C24            3.6371    -1.8876     0.5490 C.ar    
  25 C25            2.8719     7.5458     3.7562 C.3     
  26 N26            3.0547     6.9856     2.4150 N.am    
  27 C27           -3.3850     1.7241     1.5932 C.3     
  28 C28            3.5853     5.6169    -1.9545 C.3     
  29 C29            6.0380     5.2866    -1.6117 C.3     
  30 C30            4.4540     3.3982    -1.2026 C.3     
  31 Cl31           4.4087    -5.7112     1.4137 Cl      
  32 F32            5.5255    -3.2704     0.2009 F       
  33 H33            3.5621     3.0297     0.9689 H       
  34 H34            2.3663     5.5608     0.1373 H       
  35 H35            4.7208     6.4147     0.4394 H       
  36 H36            5.1944     4.7848     0.9755 H       
  37 H37           -0.2597    -2.2379     0.6195 H       
  38 H38           -1.2739    -1.2425     1.6935 H       
  39 H39           -1.1283    -0.5215    -1.2295 H       
  40 H40           -2.1189    -1.9184    -0.7484 H       
  41 H41           -3.1701     0.5090    -0.8115 H       
  42 H42           -3.5943    -0.6220     0.4903 H       
  43 H43           -1.2435     2.7413     0.9805 H       
  44 H44           -1.4140     1.9164    -0.5891 H       
  45 H45            0.6835    -2.6779     2.0206 H       
  46 H46            1.8192    -4.8496     2.2198 H       
  47 H47            4.1482    -1.0584     0.0826 H       
  48 H48            1.8516     7.3597     4.0917 H       
  49 H49            3.5726     7.0746     4.4454 H       
  50 H50            3.0553     8.6199     3.7295 H       
  51 H51            3.3023     7.5646     1.6772 H       
  52 H52           -4.1121     1.0691     2.0731 H       
  53 H53           -2.9871     2.4248     2.3272 H       
  54 H54           -3.8695     2.2770     0.7884 H       
  55 H55            3.7207     6.6961    -1.8838 H       
  56 H56            3.6886     5.3051    -2.9939 H       
  57 H57            2.5922     5.3508    -1.5923 H       
  58 H58            6.7923     4.7852    -1.0053 H       
  59 H59            6.1413     4.9748    -2.6511 H       
  60 H60            6.1734     6.3658    -1.5410 H       
  61 H61            3.4166     3.1470    -0.9816 H       
  62 H62            4.7013     3.0663    -2.2110 H       
  63 H63            5.1086     2.9022    -0.4860 H       
@<TRIPOS>BOND
   1    1    2 1
   2    1    5 2
   3    1   18 1
   4    2    3 1
   5    2   14 1
   6    3    4 2
   7    3   19 1
   8    4    5 1
   9    5    6 1
  10    6    7 2
  11    6    8 am
  12    8    9 1
  13    8   33 1
  14    9   10 1
  15    9   12 1
  16    9   34 1
  17   10   11 1
  18   10   35 1
  19   10   36 1
  20   11   28 1
  21   11   29 1
  22   11   30 1
  23   12   13 2
  24   12   26 am
  25   14   15 1
  26   14   37 1
  27   14   38 1
  28   15   16 1
  29   15   39 1
  30   15   40 1
  31   16   17 1
  32   16   41 1
  33   16   42 1
  34   17   18 1
  35   17   27 1
  36   18   43 1
  37   18   44 1
  38   19   20 ar
  39   19   24 ar
  40   20   21 ar
  41   20   45 1
  42   21   22 ar
  43   21   46 1
  44   22   23 ar
  45   22   31 1
  46   23   24 ar
  47   23   32 1
  48   24   47 1
  49   25   26 1
  50   25   48 1
  51   25   49 1
  52   25   50 1
  53   26   51 1
  54   27   52 1
  55   27   53 1
  56   27   54 1
  57   28   55 1
  58   28   56 1
  59   28   57 1
  60   29   58 1
  61   29   59 1
  62   29   60 1
  63   30   61 1
  64   30   62 1
  65   30   63 1

#	End of record

