#	Name: ASD03731181
#	Creating user name:	WinNT
#	Creation time:	15. 06. 2019 20:45

#	Modifying user name:	WinNT
#	Modification time:	15. 06. 2019 20:45

#	Program:	/corina/corina34_cracker 3.40 0067  02.08.2006

@<TRIPOS>MOLECULE
ASD03731181
  70   76    0    0    0
SMALL
NO_CHARGES


@<TRIPOS>ATOM
   1 N1            -0.0162     1.3436     0.0094 N.am    
   2 C2             0.0021    -0.0041     0.0020 C.2     
   3 O3             1.0631    -0.5976    -0.0113 O.2     
   4 N4            -1.1558    -0.6938     0.0094 N.am    
   5 C5            -1.1360    -2.1586     0.0013 C.3     
   6 C6            -2.5713    -2.6882     0.0122 C.3     
   7 O7             2.2525    -7.6022     2.0795 O.3     
   8 C8             2.6758    -8.9589     2.3104 C.3     
   9 O9             1.4988    -9.5998     2.8363 O.3     
  10 C10            0.4425    -8.9016     2.3248 C.ar    
  11 C11            0.9065    -7.6730     1.8605 C.ar    
  12 C12           -0.8990    -9.2207     2.2151 C.ar    
  13 C13           -1.7935    -8.3204     1.6441 C.ar    
  14 C14           -1.3195    -7.0928     1.1914 C.ar    
  15 C15            0.0185    -6.7742     1.2938 C.ar    
  16 O16           -3.1345    -8.4425     1.4274 O.3     
  17 C17           -2.5117    -6.3418     0.6616 C.3     
  18 C18           -3.7026    -7.1356     1.2157 C.3     
  19 N19           -2.5515    -4.1530     0.0041 N.am    
  20 C20           -2.5311    -4.9114     1.1183 C.2     
  21 C21           -2.5282    -6.2810    -0.8370 C.ar    
  22 C22           -2.5240    -7.2371    -1.8281 C.ar    
  23 C23           -2.5450    -6.8566    -3.1581 C.ar    
  24 C24           -2.5695    -5.5141    -3.4896 C.ar    
  25 C25           -2.5728    -4.5527    -2.5006 C.ar    
  26 C26           -2.5523    -4.9266    -1.1591 C.ar    
  27 O27           -2.5292    -4.5161     2.2649 O.2     
  28 C28            1.2424     2.0932     0.0014 C.3     
  29 C29            0.9425     3.5935     0.0124 C.3     
  30 C30            4.6159     5.7810    -0.0110 C.ar    
  31 C31            4.0036     5.4297    -1.2123 C.ar    
  32 C32            2.8177     4.7238    -1.1989 C.ar    
  33 C33            2.2372     4.3647     0.0041 C.ar    
  34 C34            2.8404     4.7113     1.1997 C.ar    
  35 C35            4.0264     5.4171     1.1980 C.ar    
  36 C36            5.8941     6.5347    -0.0191 C.ar    
  37 C37            6.5064     6.8860     1.1822 C.ar    
  38 C38            7.6952     7.5870     1.1688 C.ar    
  39 C39            8.2786     7.9411    -0.0343 C.ar    
  40 C40            7.6750     7.5953    -1.2299 C.ar    
  41 C41            6.4895     6.8886    -1.2282 C.ar    
  42 H42           -0.8627     1.8171     0.0160 H       
  43 H43           -2.0023    -0.2203     0.0200 H       
  44 H44           -0.6258    -2.5101    -0.8955 H       
  45 H45           -0.6088    -2.5197     0.8844 H       
  46 H46           -3.0815    -2.3367     0.9090 H       
  47 H47           -3.0985    -2.3271    -0.8709 H       
  48 H48            2.9825    -9.4287     1.3759 H       
  49 H49            3.4860    -8.9885     3.0390 H       
  50 H50           -1.2546   -10.1749     2.5749 H       
  51 H51            0.3745    -5.8211     0.9314 H       
  52 H52           -4.5118    -7.1787     0.4868 H       
  53 H53           -4.0495    -6.7073     2.1560 H       
  54 H54           -2.5046    -8.2849    -1.5668 H       
  55 H55           -2.5426    -7.6062    -3.9356 H       
  56 H56           -2.5857    -5.2172    -4.5278 H       
  57 H57           -2.5915    -3.5064    -2.7674 H       
  58 H58            1.8260     1.8329     0.8845 H       
  59 H59            1.8090     1.8425    -0.8954 H       
  60 H60            0.3589     3.8538    -0.8707 H       
  61 H61            0.3759     3.8443     0.9091 H       
  62 H62            4.4561     5.7095    -2.1522 H       
  63 H63            2.3423     4.4509    -2.1295 H       
  64 H64            2.3826     4.4287     2.1362 H       
  65 H65            4.4969     5.6866     2.1320 H       
  66 H66            6.0513     6.6106     2.1222 H       
  67 H67            8.1706     7.8598     2.0993 H       
  68 H68            9.2088     8.4900    -0.0403 H       
  69 H69            8.1347     7.8747    -2.1664 H       
  70 H70            6.0216     6.6146    -2.1622 H       
@<TRIPOS>BOND
   1    1    2 am
   2    1   28 1
   3    1   42 1
   4    2    3 2
   5    2    4 am
   6    4    5 1
   7    4   43 1
   8    5    6 1
   9    5   44 1
  10    5   45 1
  11    6   19 1
  12    6   46 1
  13    6   47 1
  14    7    8 1
  15    7   11 1
  16    8    9 1
  17    8   48 1
  18    8   49 1
  19    9   10 1
  20   10   11 ar
  21   10   12 ar
  22   11   15 ar
  23   12   13 ar
  24   12   50 1
  25   13   14 ar
  26   13   16 1
  27   14   15 ar
  28   14   17 1
  29   15   51 1
  30   16   18 1
  31   17   18 1
  32   17   20 1
  33   17   21 1
  34   18   52 1
  35   18   53 1
  36   19   20 am
  37   19   26 1
  38   20   27 2
  39   21   22 ar
  40   21   26 ar
  41   22   23 ar
  42   22   54 1
  43   23   24 ar
  44   23   55 1
  45   24   25 ar
  46   24   56 1
  47   25   26 ar
  48   25   57 1
  49   28   29 1
  50   28   58 1
  51   28   59 1
  52   29   33 1
  53   29   60 1
  54   29   61 1
  55   30   31 ar
  56   30   35 ar
  57   30   36 1
  58   31   32 ar
  59   31   62 1
  60   32   33 ar
  61   32   63 1
  62   33   34 ar
  63   34   35 ar
  64   34   64 1
  65   35   65 1
  66   36   37 ar
  67   36   41 ar
  68   37   38 ar
  69   37   66 1
  70   38   39 ar
  71   38   67 1
  72   39   40 ar
  73   39   68 1
  74   40   41 ar
  75   40   69 1
  76   41   70 1

#	End of record

