#	Name: ASD02039126
#	Creating user name:	WinNT
#	Creation time:	15. 06. 2019 20:17

#	Modifying user name:	WinNT
#	Modification time:	15. 06. 2019 20:17

#	Program:	/corina/corina34_cracker 3.40 0067  02.08.2006

@<TRIPOS>MOLECULE
ASD02039126
  35   38    0    0    0
SMALL
NO_CHARGES


@<TRIPOS>ATOM
   1 N1             0.0234     1.2846    -0.3605 N.2     
   2 N2             0.0398    -0.0019    -0.3617 N.2     
   3 C3             1.2243     1.7332    -0.0875 C.2     
   4 O4             2.0203     0.6621     0.0884 O.3     
   5 C5             1.2410    -0.4221    -0.0918 C.2     
   6 N6             1.6033     3.0607     0.0028 N.pl3   
   7 C7             0.6404     4.0705    -0.0881 C.ar    
   8 C8             1.6810    -1.8603     0.0022 C.3     
   9 C9             2.1408    -2.3346    -1.3523 C.ar    
  10 C10           -0.6621     3.8291     0.3297 C.ar    
  11 C11            0.9862     5.3181    -0.5910 C.ar    
  12 C12            0.0337     6.3147    -0.6802 C.ar    
  13 C13           -1.2645     6.0719    -0.2693 C.ar    
  14 Cl14          -2.4586     7.3269    -0.3830 Cl      
  15 C15            3.4508    -2.1933    -1.7091 C.ar    
  16 C16            1.2287    -2.9165    -2.2237 C.ar    
  17 C17            1.6206    -3.3550    -3.4569 C.ar    
  18 C18            2.9493    -3.2194    -3.8507 C.ar    
  19 C19            3.8767    -2.6343    -2.9667 C.ar    
  20 C20           -1.6122     4.8297     0.2385 C.ar    
  21 N21            3.6411    -3.5485    -4.9871 N.pl3   
  22 N22            4.9802    -3.1757    -4.8312 N.2     
  23 C23            5.1610    -2.6363    -3.6595 C.2     
  24 F24           -2.8809     4.5949     0.6392 F       
  25 H25            2.5371     3.2910     0.1291 H       
  26 H26            2.5021    -1.9433     0.7143 H       
  27 H27            0.8455    -2.4747     0.3379 H       
  28 H28           -0.9325     2.8611     0.7249 H       
  29 H29            1.9996     5.5091    -0.9118 H       
  30 H30            0.3032     7.2848    -1.0710 H       
  31 H31            4.1545    -1.7432    -1.0246 H       
  32 H32            0.1972    -3.0241    -1.9223 H       
  33 H33            0.9015    -3.8059    -4.1247 H       
  34 H34            3.2628    -3.9723    -5.7733 H       
  35 H35            6.0944    -2.2569    -3.2708 H       
@<TRIPOS>BOND
   1    1    2 1
   2    1    3 2
   3    2    5 2
   4    3    4 1
   5    3    6 1
   6    4    5 1
   7    5    8 1
   8    6    7 1
   9    6   25 1
  10    7   10 ar
  11    7   11 ar
  12    8    9 1
  13    8   26 1
  14    8   27 1
  15    9   15 ar
  16    9   16 ar
  17   10   20 ar
  18   10   28 1
  19   11   12 ar
  20   11   29 1
  21   12   13 ar
  22   12   30 1
  23   13   20 ar
  24   13   14 1
  25   15   19 ar
  26   15   31 1
  27   16   17 ar
  28   16   32 1
  29   17   18 ar
  30   17   33 1
  31   18   19 ar
  32   18   21 1
  33   19   23 1
  34   20   24 1
  35   21   22 1
  36   21   34 1
  37   22   23 2
  38   23   35 1

#	End of record

