#	Name: ASD04910112
#	Creating user name:	WinNT
#	Creation time:	15. 06. 2019 20:55

#	Modifying user name:	WinNT
#	Modification time:	15. 06. 2019 20:55

#	Program:	/corina/corina34_cracker 3.40 0067  02.08.2006

@<TRIPOS>MOLECULE
ASD04910112
  24   25    0    0    0
SMALL
NO_CHARGES


@<TRIPOS>ATOM
   1 C1            -0.0156     1.3010     0.0092 C.2     
   2 N2             0.0021    -0.0041     0.0020 N.2     
   3 C3             1.2734    -0.4312    -0.0124 C.2     
   4 C4             2.0794     0.6475    -0.0143 C.2     
   5 N5             1.2660     1.7510    -0.0006 N.pl3   
   6 C6             1.7223    -1.8698    -0.0240 C.3     
   7 F7             0.6058    -2.7058    -0.1329 F       
   8 F8             2.5734    -2.0840    -1.1135 F       
   9 F9             2.4044    -2.1550     1.1637 F       
  10 C10            1.6790     3.0911     0.0019 C.ar    
  11 C11            0.7357     4.1095     0.0161 C.ar    
  12 C12            1.1455     5.4286     0.0191 C.ar    
  13 C13            2.4938     5.7351     0.0079 C.ar    
  14 C14            3.4357     4.7228    -0.0062 C.ar    
  15 C15            3.0319     3.4019    -0.0039 C.ar    
  16 N16            2.9298     7.1496     0.0107 N.pl3   
  17 O17            2.1011     8.0423     0.0227 O.2     
  18 O18            4.1171     7.4210     0.0008 O.2     
  19 H19           -0.9010     1.9195     0.0169 H       
  20 H20            3.1594     0.6440    -0.0246 H       
  21 H21           -0.3175     3.8707     0.0245 H       
  22 H22            0.4121     6.2213     0.0298 H       
  23 H23            4.4881     4.9652    -0.0149 H       
  24 H24            3.7680     2.6116    -0.0108 H       
@<TRIPOS>BOND
   1    1    2 2
   2    1    5 1
   3    1   19 1
   4    2    3 1
   5    3    4 2
   6    3    6 1
   7    4    5 1
   8    4   20 1
   9    5   10 1
  10    6    7 1
  11    6    8 1
  12    6    9 1
  13   10   11 ar
  14   10   15 ar
  15   11   12 ar
  16   11   21 1
  17   12   13 ar
  18   12   22 1
  19   13   14 ar
  20   13   16 1
  21   14   15 ar
  22   14   23 1
  23   15   24 1
  24   16   17 2
  25   16   18 2

#	End of record

