#	Name: ASD01870436
#	Creating user name:	WinNT
#	Creation time:	15. 06. 2019 19:39

#	Modifying user name:	WinNT
#	Modification time:	15. 06. 2019 19:39

#	Program:	/corina/corina34_cracker 3.40 0067  02.08.2006

@<TRIPOS>MOLECULE
ASD01870436
  51   55    0    0    0
SMALL
NO_CHARGES


@<TRIPOS>ATOM
   1 N1            -0.0162     1.3436     0.0094 N.am    
   2 C2             0.0021    -0.0041     0.0020 C.2     
   3 C3            -1.2926    -0.7753     0.0102 C.3     
   4 O4             1.0605    -0.5961    -0.0113 O.2     
   5 C5            -1.1041    -2.3031     0.0002 C.3     
   6 N6            -2.1920    -2.3432     0.9966 N.am    
   7 C7            -1.8956    -0.9592     1.4147 C.3     
   8 S8            -3.3003    -3.4832     1.4596 S.o2    
   9 C9            -2.5707    -4.4221     2.7598 C.ar    
  10 C10           -1.4327    -5.2142     2.5124 C.ar    
  11 O11           -4.3876    -2.7742     2.0378 O.2     
  12 O12           -3.4480    -4.3695     0.3587 O.2     
  13 C13           -3.0964    -4.3844     4.0092 C.ar    
  14 C14           -2.5444    -5.1167     5.0679 C.ar    
  15 C15           -1.4532    -5.9047     4.9031 C.ar    
  16 C16           -0.8479    -5.9904     3.6343 C.ar    
  17 C17            1.2357     2.1156     0.0016 C.3     
  18 C18            1.1612     3.1524    -1.1243 C.3     
  19 N19           -0.0610     3.9524    -0.9688 N.3     
  20 C20           -1.2637     3.1194    -1.1013 C.3     
  21 C21           -1.2886     2.0812     0.0194 C.3     
  22 C22           -0.0839     5.0039    -1.8698 C.2     
  23 N23            0.8449     5.2756    -2.7558 N.2     
  24 N24            0.1652    -6.5987     3.0684 N.2     
  25 O25            0.2123    -6.2850     1.8959 O.3     
  26 N26           -0.6450    -5.5159     1.5099 N.2     
  27 C27            0.4859     6.3649    -3.4561 C.2     
  28 C28           -0.7032     6.7896    -2.9963 C.2     
  29 N29           -1.0759     5.9268    -1.9904 N.pl3   
  30 C30           -2.3043     5.9946    -1.1949 C.3     
  31 H31           -2.0058    -0.4162    -0.7318 H       
  32 H32           -1.3611    -2.7713    -0.9500 H       
  33 H33           -0.1396    -2.6293     0.3895 H       
  34 H34           -1.1636    -0.8907     2.2195 H       
  35 H35           -2.7845    -0.3544     1.5939 H       
  36 H36           -3.9662    -3.7713     4.1935 H       
  37 H37           -3.0011    -5.0516     6.0444 H       
  38 H38           -1.0492    -6.4577     5.7382 H       
  39 H39            1.3592     2.6225     0.9586 H       
  40 H40            2.0778     1.4458    -0.1725 H       
  41 H41            2.0323     3.8057    -1.0753 H       
  42 H42            1.1421     2.6426    -2.0875 H       
  43 H43           -2.1512     3.7488    -1.0356 H       
  44 H44           -1.2490     2.6100    -2.0648 H       
  45 H45           -2.1158     1.3897    -0.1405 H       
  46 H46           -1.4069     2.5823     0.9801 H       
  47 H47            1.0558     6.8213    -4.2519 H       
  48 H48           -1.2619     7.6432    -3.3509 H       
  49 H49           -3.0872     5.4164    -1.6856 H       
  50 H50           -2.1175     5.5844    -0.2025 H       
  51 H51           -2.6220     7.0333    -1.1049 H       
@<TRIPOS>BOND
   1    1    2 am
   2    1   17 1
   3    1   21 1
   4    2    3 1
   5    2    4 2
   6    3    5 1
   7    3    7 1
   8    3   31 1
   9    5    6 1
  10    5   32 1
  11    5   33 1
  12    6    7 1
  13    6    8 am
  14    7   34 1
  15    7   35 1
  16    8    9 1
  17    8   11 2
  18    8   12 2
  19    9   13 ar
  20    9   10 ar
  21   10   16 ar
  22   10   26 2
  23   13   14 ar
  24   13   36 1
  25   14   15 ar
  26   14   37 1
  27   15   16 ar
  28   15   38 1
  29   16   24 2
  30   17   18 1
  31   17   39 1
  32   17   40 1
  33   18   19 1
  34   18   41 1
  35   18   42 1
  36   19   20 1
  37   19   22 1
  38   20   21 1
  39   20   43 1
  40   20   44 1
  41   21   45 1
  42   21   46 1
  43   22   23 2
  44   22   29 1
  45   23   27 1
  46   24   25 1
  47   25   26 1
  48   27   28 2
  49   27   47 1
  50   28   29 1
  51   28   48 1
  52   29   30 1
  53   30   49 1
  54   30   50 1
  55   30   51 1

#	End of record

