#	Name: ASD09890046
#	Creating user name:	WinNT
#	Creation time:	15. 06. 2019 21:24

#	Modifying user name:	WinNT
#	Modification time:	15. 06. 2019 21:24

#	Program:	/corina/corina34_cracker 3.40 0067  02.08.2006

@<TRIPOS>MOLECULE
ASD09890046
  46   49    0    0    0
SMALL
NO_CHARGES


@<TRIPOS>ATOM
   1 C1            -0.0167     1.3784     0.0096 C.ar    
   2 C2             0.0021    -0.0041     0.0020 C.ar    
   3 C3             1.2074    -0.6814    -0.0127 C.ar    
   4 C4             2.3963     0.0221    -0.0203 C.ar    
   5 C5             2.3802     1.4093    -0.0132 C.ar    
   6 C6             1.1695     2.0865     0.0021 C.ar    
   7 O7             3.5484     2.1036    -0.0202 O.3     
   8 C8             3.4557     3.5296    -0.0122 C.3     
   9 C9             4.8408     4.1231    -0.0217 C.2     
  10 N10            5.5758     4.4479    -1.1283 N.pl3   
  11 C11            6.7547     4.9487    -0.6554 C.2     
  12 N12            6.6908     4.9097     0.6553 N.2     
  13 N13            5.5577     4.4271     1.0230 N.2     
  14 S14            8.1062     5.5358    -1.6214 S.3     
  15 C15            9.2503     6.0146    -0.3031 C.3     
  16 C16           10.5943     6.4583    -0.9069 C.3     
  17 C17           10.8047     7.9264    -0.4827 C.3     
  18 C18            9.9426     8.0799     0.7949 C.3     
  19 C19            8.6909     7.2286     0.4670 C.3     
  20 C20            5.1803     4.2909    -2.5302 C.3     
  21 C21            4.4852     5.5431    -2.9992 C.2     
  22 O22            3.1657     5.7829    -2.9270 O.3     
  23 C23            5.0817     6.6124    -3.5559 C.2     
  24 C24            4.0613     7.5486    -3.8409 C.2     
  25 C25            2.9026     6.9968    -3.4378 C.2     
  26 H26           -0.9595     1.9052     0.0170 H       
  27 H27           -0.9263    -0.5558     0.0080 H       
  28 H28            1.2194    -1.7613    -0.0179 H       
  29 H29            3.3375    -0.5074    -0.0315 H       
  30 H30            1.1543     3.1664     0.0073 H       
  31 H31            2.9113     3.8632    -0.8956 H       
  32 H32            2.9274     3.8543     0.8842 H       
  33 H33            9.4052     5.1782     0.3785 H       
  34 H34           11.4015     5.8377    -0.5177 H       
  35 H35           10.5575     6.3853    -1.9939 H       
  36 H36           11.8552     8.1119    -0.2586 H       
  37 H37           10.4548     8.6028    -1.2626 H       
  38 H38           10.4651     7.6799     1.6638 H       
  39 H39            9.6695     9.1232     0.9536 H       
  40 H40            7.9997     7.7922    -0.1595 H       
  41 H41            8.1988     6.9048     1.3841 H       
  42 H42            6.0666     4.1170    -3.1404 H       
  43 H43            4.5026     3.4424    -2.6237 H       
  44 H44            6.1377     6.7331    -3.7478 H       
  45 H45            4.1881     8.5215    -4.2923 H       
  46 H46            1.9263     7.4525    -3.5126 H       
@<TRIPOS>BOND
   1    1    2 ar
   2    1    6 ar
   3    1   26 1
   4    2    3 ar
   5    2   27 1
   6    3    4 ar
   7    3   28 1
   8    4    5 ar
   9    4   29 1
  10    5    6 ar
  11    5    7 1
  12    6   30 1
  13    7    8 1
  14    8    9 1
  15    8   31 1
  16    8   32 1
  17    9   10 1
  18    9   13 2
  19   10   11 1
  20   10   20 1
  21   11   12 2
  22   11   14 1
  23   12   13 1
  24   14   15 1
  25   15   16 1
  26   15   19 1
  27   15   33 1
  28   16   17 1
  29   16   34 1
  30   16   35 1
  31   17   18 1
  32   17   36 1
  33   17   37 1
  34   18   19 1
  35   18   38 1
  36   18   39 1
  37   19   40 1
  38   19   41 1
  39   20   21 1
  40   20   42 1
  41   20   43 1
  42   21   22 1
  43   21   23 2
  44   22   25 1
  45   23   24 1
  46   23   44 1
  47   24   25 2
  48   24   45 1
  49   25   46 1

#	End of record

