#	Name: ASD05060078
#	Creating user name:	WinNT
#	Creation time:	15. 06. 2019 20:56

#	Modifying user name:	WinNT
#	Modification time:	15. 06. 2019 20:56

#	Program:	/corina/corina34_cracker 3.40 0067  02.08.2006

@<TRIPOS>MOLECULE
ASD05060078
  46   48    0    0    0
SMALL
NO_CHARGES


@<TRIPOS>ATOM
   1 C1             1.4785     1.0589    -0.0132 C.ar    
   2 C2             2.1101    -0.1541     0.2210 C.ar    
   3 C3             3.3250    -0.1834     0.8775 C.ar    
   4 C4             3.9117     0.9948     1.3016 C.ar    
   5 C5             3.2844     2.2047     1.0695 C.ar    
   6 C6             2.0693     2.2394     0.4129 C.ar    
   7 O7             0.2858     1.0909    -0.6638 O.3     
   8 C8             1.3863     3.5587     0.1598 C.3     
   9 N9             0.3436     3.7700     1.1670 N.pl3   
  10 C10            0.6896     4.3418     2.4706 C.3     
  11 C11           -0.9830     3.4256     0.8838 C.ar    
  12 C12            0.6186     5.8452     2.3946 C.ar    
  13 C13            1.7739     6.5844     2.2271 C.ar    
  14 C14            1.7093     7.9635     2.1567 C.ar    
  15 C15            0.4890     8.6068     2.2538 C.ar    
  16 C16           -0.6687     7.8724     2.4217 C.ar    
  17 C17           -0.6072     6.4878     2.4869 C.ar    
  18 C18           -1.6499     4.0412    -0.1708 C.ar    
  19 C19           -2.9582     3.7083    -0.4572 C.ar    
  20 C20           -3.6183     2.7564     0.3053 C.ar    
  21 C21           -2.9534     2.1314     1.3689 C.ar    
  22 C22           -1.6266     2.4694     1.6497 C.ar    
  23 O23           -4.9054     2.4311     0.0224 O.3     
  24 C24           -3.6481     1.1187     2.1840 C.2     
  25 O25           -4.8002     0.8239     1.9345 O.2     
  26 O26           -3.0057     0.5198     3.2060 O.3     
  27 O27           -1.7455     5.7626     2.6461 O.3     
  28 H28            1.6520    -1.0746    -0.1095 H       
  29 H29            3.8170    -1.1274     1.0600 H       
  30 H30            4.8613     0.9697     1.8154 H       
  31 H31            3.7446     3.1235     1.4018 H       
  32 H32           -0.4811     0.9829    -0.0848 H       
  33 H33            2.1182     4.3642     0.2200 H       
  34 H34            0.9362     3.5503    -0.8329 H       
  35 H35           -0.0126     3.9825     3.2229 H       
  36 H36            1.7007     4.0391     2.7434 H       
  37 H37            2.7281     6.0843     2.1514 H       
  38 H38            2.6135     8.5395     2.0262 H       
  39 H39            0.4412     9.6843     2.1986 H       
  40 H40           -1.6214     8.3753     2.4978 H       
  41 H41           -1.1413     4.7835    -0.7680 H       
  42 H42           -3.4696     4.1907    -1.2772 H       
  43 H43           -1.1063     1.9888     2.4650 H       
  44 H44           -4.9978     1.7034    -0.6076 H       
  45 H45           -3.5024    -0.1378     3.7118 H       
  46 H46           -1.9833     5.6015     3.5694 H       
@<TRIPOS>BOND
   1    1    2 ar
   2    1    6 ar
   3    1    7 1
   4    2    3 ar
   5    2   28 1
   6    3    4 ar
   7    3   29 1
   8    4    5 ar
   9    4   30 1
  10    5    6 ar
  11    5   31 1
  12    6    8 1
  13    7   32 1
  14    8    9 1
  15    8   33 1
  16    8   34 1
  17    9   10 1
  18    9   11 1
  19   10   12 1
  20   10   35 1
  21   10   36 1
  22   11   18 ar
  23   11   22 ar
  24   12   13 ar
  25   12   17 ar
  26   13   14 ar
  27   13   37 1
  28   14   15 ar
  29   14   38 1
  30   15   16 ar
  31   15   39 1
  32   16   17 ar
  33   16   40 1
  34   17   27 1
  35   18   19 ar
  36   18   41 1
  37   19   20 ar
  38   19   42 1
  39   20   21 ar
  40   20   23 1
  41   21   22 ar
  42   21   24 1
  43   22   43 1
  44   23   44 1
  45   24   25 2
  46   24   26 1
  47   26   45 1
  48   27   46 1

#	End of record

