#	Name: ASD09116176
#	Creating user name:	WinNT
#	Creation time:	15. 06. 2019 21:21

#	Modifying user name:	WinNT
#	Modification time:	15. 06. 2019 21:21

#	Program:	/corina/corina34_cracker 3.40 0067  02.08.2006

@<TRIPOS>MOLECULE
ASD09116176
  81   86    0    0    0
SMALL
NO_CHARGES


@<TRIPOS>ATOM
   1 N1            -0.0955     1.6052    -0.0679 N.2     
   2 C2            -0.1314     0.2096    -0.5396 C.3     
   3 C3             1.1583     1.9681    -0.0852 C.2     
   4 N4             1.9806     0.9879    -0.5117 N.2     
   5 C5             1.3271    -0.1044    -0.8106 C.2     
   6 N6             1.5959     3.2214     0.2928 N.pl3   
   7 C7             2.9683     3.4963     0.3504 C.ar    
   8 C8             3.4319     4.7756     0.0759 C.ar    
   9 C9             3.8644     2.4900     0.6878 C.ar    
  10 C10            5.2183     2.7615     0.7445 C.ar    
  11 C11            5.6824     4.0423     0.4637 C.ar    
  12 C12            4.7853     5.0476     0.1320 C.ar    
  13 N13            1.8460    -1.2754    -1.2685 N.pl3   
  14 C14           -0.6810    -0.6990     0.5298 C.ar    
  15 C15           -0.4268    -0.4183     1.8587 C.ar    
  16 N16           -1.4038    -1.7501     0.1834 N.ar    
  17 C17           -1.8974    -2.5609     1.0889 C.ar    
  18 C18           -1.6764    -2.3512     2.4393 C.ar    
  19 C19           -0.9325    -1.2592     2.8419 C.ar    
  20 C20           -2.7408    -3.7642     0.7131 C.3     
  21 C21           -2.3230    -5.0039     1.5285 C.3     
  22 C22           -3.1041    -4.3686     2.6954 C.3     
  23 C23           -2.2557    -3.3240     3.4335 C.3     
  24 N24            7.0547     4.3187     0.5214 N.3     
  25 C25            7.5530     4.7833    -0.7794 C.3     
  26 C26            9.0747     4.9355    -0.7194 C.3     
  27 C27            9.4394     5.9407     0.3765 C.3     
  28 C28            8.8673     5.4575     1.7121 C.3     
  29 C29            7.3517     5.2903     1.5817 C.3     
  30 F30            6.0905     1.7835     1.0730 F       
  31 N31           10.9010     6.0471     0.4783 N.3     
  32 C32           11.4817     6.5639    -0.7746 C.3     
  33 C33           12.2876     7.8304    -0.4167 C.3     
  34 C34           12.5872     7.6388     1.0934 C.3     
  35 C35           11.2909     6.9474     1.5844 C.3     
  36 C36           -4.0071    -3.7652     1.6078 C.3     
  37 C37           -4.5273    -2.3660     1.9433 C.3     
  38 H38           -0.7211     0.1273    -1.4526 H       
  39 H39            0.9531     3.9119     0.5186 H       
  40 H40            2.7343     5.5586    -0.1820 H       
  41 H41            3.5032     1.4959     0.9060 H       
  42 H42            5.1456     6.0422    -0.0861 H       
  43 H43            2.8024    -1.3612    -1.4059 H       
  44 H44            1.2597    -2.0247    -1.4575 H       
  45 H45            0.1599     0.4467     2.1304 H       
  46 H46           -0.7463    -1.0674     3.8883 H       
  47 H47           -2.8835    -3.9132    -0.3571 H       
  48 H48           -2.7567    -5.9356     1.1651 H       
  49 H49           -1.2495    -5.0730     1.7043 H       
  50 H50           -3.5908    -5.0834     3.3589 H       
  51 H51           -1.4467    -3.8239     3.9662 H       
  52 H52           -2.8811    -2.7859     4.1459 H       
  53 H53            7.2907     4.0576    -1.5492 H       
  54 H54            7.1010     5.7458    -1.0188 H       
  55 H55            9.5283     3.9704    -0.4937 H       
  56 H56            9.4426     5.2953    -1.6803 H       
  57 H57            9.0184     6.9157     0.1313 H       
  58 H58            9.3176     4.5007     1.9761 H       
  59 H59            9.0870     6.1904     2.4885 H       
  60 H60            6.9006     6.2504     1.3312 H       
  61 H61            6.9431     4.9327     2.5268 H       
  62 H62           12.1419     5.8159    -1.2135 H       
  63 H63           10.6861     6.8165    -1.4755 H       
  64 H64           13.2131     7.8732    -0.9908 H       
  65 H65           11.6895     8.7268    -0.5803 H       
  66 H66           13.4536     6.9940     1.2409 H       
  67 H67           12.7288     8.5996     1.5883 H       
  68 H68           10.5110     7.6873     1.7643 H       
  69 H69           11.4867     6.3732     2.4899 H       
  70 H70           -4.7898    -4.4402     1.2615 H       
  71 H71           -5.0947    -1.9769     1.0978 H       
  72 H72           -5.1723    -2.4188     2.8203 H       
  73 H73           -3.6854    -1.7055     2.1507 H       
  74 C74           19.4554    15.6339    10.0511 C.3     
  75 C75           19.4762    14.1041    10.0427 C.3     
  76 H76           20.4780    16.0112    10.0434 H       
  77 H77           18.9282    15.9950     9.1680 H       
  78 H78           18.9452    15.9854    10.9479 H       
  79 H79           20.0034    13.7430    10.9257 H       
  80 H80           18.4536    13.7268    10.0504 H       
  81 H81           19.9864    13.7526     9.1459 H       
@<TRIPOS>BOND
   1    1    2 1
   2    1    3 2
   3    2   14 1
   4    2    5 1
   5    2   38 1
   6    3    4 1
   7    3    6 1
   8    4    5 2
   9    5   13 1
  10    6    7 1
  11    6   39 1
  12    7    8 ar
  13    7    9 ar
  14    8   12 ar
  15    8   40 1
  16    9   10 ar
  17    9   41 1
  18   10   11 ar
  19   10   30 1
  20   11   12 ar
  21   11   24 1
  22   12   42 1
  23   13   43 1
  24   13   44 1
  25   14   15 ar
  26   14   16 ar
  27   15   19 ar
  28   15   45 1
  29   16   17 ar
  30   17   18 ar
  31   17   20 1
  32   18   19 ar
  33   18   23 1
  34   19   46 1
  35   20   21 1
  36   20   36 1
  37   20   47 1
  38   21   22 1
  39   21   48 1
  40   21   49 1
  41   22   23 1
  42   22   36 1
  43   22   50 1
  44   23   51 1
  45   23   52 1
  46   24   25 1
  47   24   29 1
  48   25   26 1
  49   25   53 1
  50   25   54 1
  51   26   27 1
  52   26   55 1
  53   26   56 1
  54   27   28 1
  55   27   31 1
  56   27   57 1
  57   28   29 1
  58   28   58 1
  59   28   59 1
  60   29   60 1
  61   29   61 1
  62   31   32 1
  63   31   35 1
  64   32   33 1
  65   32   62 1
  66   32   63 1
  67   33   34 1
  68   33   64 1
  69   33   65 1
  70   34   35 1
  71   34   66 1
  72   34   67 1
  73   35   68 1
  74   35   69 1
  75   36   37 1
  76   36   70 1
  77   37   71 1
  78   37   72 1
  79   37   73 1
  80   74   75 1
  81   74   76 1
  82   74   77 1
  83   74   78 1
  84   75   79 1
  85   75   80 1
  86   75   81 1

#	End of record

