#	Name: ASD01231374
#	Creating user name:	WinNT
#	Creation time:	15. 06. 2019 19:15

#	Modifying user name:	WinNT
#	Modification time:	15. 06. 2019 19:15

#	Program:	/corina/corina34_cracker 3.40 0067  02.08.2006

@<TRIPOS>MOLECULE
ASD01231374
  57   60    0    0    0
SMALL
NO_CHARGES


@<TRIPOS>ATOM
   1 C1            -0.0162     1.3436     0.0094 C.2     
   2 N2             0.0021    -0.0041     0.0020 N.am    
   3 O3             1.0277     1.9654     0.0028 O.2     
   4 O4            -1.1912     2.0008     0.0186 O.3     
   5 C5             1.8167    -0.9169     1.4198 C.3     
   6 C6             1.2806    -0.7192    -0.0140 C.3     
   7 C7             1.0906    -2.1719    -0.4998 C.3     
   8 C8             2.0792    -2.9904     0.3027 C.ar    
   9 C9             2.5745    -4.2653     0.0850 C.ar    
  10 C10            3.4832    -4.8177     0.9660 C.ar    
  11 C11            3.9005    -4.0964     2.0693 C.ar    
  12 C12            3.4078    -2.8250     2.2880 C.ar    
  13 C13            2.4964    -2.2693     1.4056 C.ar    
  14 C14            4.0199    -6.2051     0.7249 C.3     
  15 C15            5.2678    -6.1219    -0.1160 C.ar    
  16 C16            6.5037    -5.9997     0.4914 C.ar    
  17 C17            7.6482    -5.9233    -0.2797 C.ar    
  18 C18            7.5570    -5.9697    -1.6585 C.ar    
  19 C19            6.3215    -6.0928    -2.2657 C.ar    
  20 C20            5.1771    -6.1735    -1.4942 C.ar    
  21 C21            6.2221    -6.1428    -3.7686 C.3     
  22 F22            7.5027    -6.0479    -4.3240 F       
  23 F23            5.6337    -7.3511    -4.1571 F       
  24 F24            5.4378    -5.0758    -4.2199 F       
  25 C25            8.9953    -5.7891     0.3823 C.3     
  26 O26            9.5362    -7.0885     0.6294 O.3     
  27 C27           -1.1349     3.4517     0.0262 C.3     
  28 C28           -2.5351     4.0087     0.0359 C.ar    
  29 C29           -3.1717     4.2577     1.2374 C.ar    
  30 C30           -4.4561     4.7686     1.2463 C.ar    
  31 C31           -5.1038     5.0309     0.0536 C.ar    
  32 C32           -4.4670     4.7828    -1.1480 C.ar    
  33 C33           -3.1809     4.2760    -1.1568 C.ar    
  34 H34           -0.8313    -0.5005     0.0073 H       
  35 H35            2.5352    -0.1351     1.6660 H       
  36 H36            0.9940    -0.9145     2.1348 H       
  37 H37            2.0105    -0.1963    -0.6320 H       
  38 H38            0.0726    -2.5071    -0.3011 H       
  39 H39            1.3133    -2.2469    -1.5642 H       
  40 H40            2.2487    -4.8295    -0.7764 H       
  41 H41            4.6109    -4.5270     2.7595 H       
  42 H42            3.7342    -2.2622     3.1500 H       
  43 H43            4.2559    -6.6744     1.6799 H       
  44 H44            3.2695    -6.7994     0.2036 H       
  45 H45            6.5749    -5.9635     1.5685 H       
  46 H46            8.4512    -5.9093    -2.2612 H       
  47 H47            4.2120    -6.2735    -1.9685 H       
  48 H48            9.6678    -5.2340    -0.2717 H       
  49 H49            8.8846    -5.2560     1.3265 H       
  50 H50           10.4044    -7.0787     1.0551 H       
  51 H51           -0.6031     3.7900     0.9155 H       
  52 H52           -0.6116     3.7997    -0.8644 H       
  53 H53           -2.6656     4.0527     2.1692 H       
  54 H54           -4.9537     4.9624     2.1850 H       
  55 H55           -6.1076     5.4294     0.0605 H       
  56 H56           -4.9732     4.9875    -2.0798 H       
  57 H57           -2.6820     4.0856    -2.0955 H       
@<TRIPOS>BOND
   1    1    2 am
   2    1    3 2
   3    1    4 1
   4    2    6 1
   5    2   34 1
   6    4   27 1
   7    5    6 1
   8    5   13 1
   9    5   35 1
  10    5   36 1
  11    6    7 1
  12    6   37 1
  13    7    8 1
  14    7   38 1
  15    7   39 1
  16    8    9 ar
  17    8   13 ar
  18    9   10 ar
  19    9   40 1
  20   10   11 ar
  21   10   14 1
  22   11   12 ar
  23   11   41 1
  24   12   13 ar
  25   12   42 1
  26   14   15 1
  27   14   43 1
  28   14   44 1
  29   15   16 ar
  30   15   20 ar
  31   16   17 ar
  32   16   45 1
  33   17   18 ar
  34   17   25 1
  35   18   19 ar
  36   18   46 1
  37   19   20 ar
  38   19   21 1
  39   20   47 1
  40   21   22 1
  41   21   23 1
  42   21   24 1
  43   25   26 1
  44   25   48 1
  45   25   49 1
  46   26   50 1
  47   27   28 1
  48   27   51 1
  49   27   52 1
  50   28   29 ar
  51   28   33 ar
  52   29   30 ar
  53   29   53 1
  54   30   31 ar
  55   30   54 1
  56   31   32 ar
  57   31   55 1
  58   32   33 ar
  59   32   56 1
  60   33   57 1

#	End of record

