#	Name: ASD02500728
#	Creating user name:	WinNT
#	Creation time:	15. 06. 2019 20:23

#	Modifying user name:	WinNT
#	Modification time:	15. 06. 2019 20:23

#	Program:	/corina/corina34_cracker 3.40 0067  02.08.2006

@<TRIPOS>MOLECULE
ASD02500728
  61   64    0    0    0
SMALL
NO_CHARGES


@<TRIPOS>ATOM
   1 C1             0.4002     1.6166    -1.7719 C.ar    
   2 C2             1.2494     1.0594    -0.8268 C.ar    
   3 C3             2.3332     0.2962    -1.2351 C.ar    
   4 C4             2.5652     0.0922    -2.5818 C.ar    
   5 C5             1.7175     0.6490    -3.5227 C.ar    
   6 C6             0.6353     1.4104    -3.1173 C.ar    
   7 S7            -0.9817     2.5805    -1.2562 S.o2    
   8 O8            -0.4844     3.5249    -0.3180 O.2     
   9 O9            -1.6759     2.9518    -2.4392 O.2     
  10 N10           -1.9943     1.5752    -0.4157 N.am    
  11 C11           -2.5632     0.4749    -1.0474 C.ar    
  12 C12           -2.5936    -0.7580    -0.4016 C.ar    
  13 C13           -3.1559    -1.8488    -1.0241 C.ar    
  14 C14           -3.6970    -1.7180    -2.3064 C.ar    
  15 C15           -3.6649    -0.4786    -2.9523 C.ar    
  16 C16           -3.1063     0.6098    -2.3222 C.ar    
  17 C17           -4.3002    -2.8855    -2.9768 C.2     
  18 O18           -5.2458    -2.7348    -3.7263 O.2     
  19 N19           -3.8031    -4.1191    -2.7587 N.am    
  20 C20           -4.4619    -5.3085    -3.3193 C.3     
  21 C21           -3.4116    -6.1432    -4.0598 C.3     
  22 N22           -2.2877    -6.4236    -3.1563 N.3     
  23 C23           -1.6108    -5.1855    -2.7477 C.3     
  24 C24           -2.5839    -4.3111    -1.9586 C.3     
  25 C25           -1.3852    -7.3191    -3.7414 C.ar    
  26 C26           -1.7724    -8.6327    -3.9995 C.ar    
  27 C27           -0.8755    -9.5141    -4.5789 C.ar    
  28 C28            0.4017    -9.0907    -4.8998 C.ar    
  29 C29            0.7867    -7.7882    -4.6438 C.ar    
  30 C30           -0.1049    -6.9000    -4.0711 C.ar    
  31 O31           -3.0282    -9.0480    -3.6826 O.3     
  32 C32           -3.3551   -10.4078    -3.9757 C.3     
  33 O33            1.0199     1.2616     0.4975 O.3     
  34 C34            1.8634     0.5639     1.4161 C.3     
  35 Cl35           2.0116     0.3922    -5.2142 Cl      
  36 H36            2.9956    -0.1380    -0.5009 H       
  37 H37            3.4090    -0.5020    -2.9001 H       
  38 H38           -0.0255     1.8439    -3.8533 H       
  39 H39           -2.1906     1.7539     0.5172 H       
  40 H40           -2.1751    -0.8586     0.5890 H       
  41 H41           -3.1789    -2.8051    -0.5227 H       
  42 H42           -4.0818    -0.3745    -3.9432 H       
  43 H43           -3.0855     1.5686    -2.8187 H       
  44 H44           -4.8980    -5.8994    -2.5139 H       
  45 H45           -5.2423    -5.0009    -4.0154 H       
  46 H46           -3.8580    -7.0821    -4.3873 H       
  47 H47           -3.0518    -5.5891    -4.9268 H       
  48 H48           -0.7512    -5.4299    -2.1236 H       
  49 H49           -1.2761    -4.6448    -3.6330 H       
  50 H50           -2.1233    -3.3443    -1.7554 H       
  51 H51           -2.8359    -4.8043    -1.0198 H       
  52 H52           -1.1730   -10.5327    -4.7800 H       
  53 H53            1.1000    -9.7798    -5.3514 H       
  54 H54            1.7851    -7.4622    -4.8955 H       
  55 H55            0.1970    -5.8816    -3.8762 H       
  56 H56           -3.2497   -10.5842    -5.0462 H       
  57 H57           -2.6816   -11.0691    -3.4305 H       
  58 H58           -4.3833   -10.6075    -3.6741 H       
  59 H59            1.8244    -0.5048     1.2054 H       
  60 H60            2.8886     0.9181     1.3089 H       
  61 H61            1.5206     0.7462     2.4346 H       
@<TRIPOS>BOND
   1    1    2 ar
   2    1    6 ar
   3    1    7 1
   4    2    3 ar
   5    2   33 1
   6    3    4 ar
   7    3   36 1
   8    4    5 ar
   9    4   37 1
  10    5    6 ar
  11    5   35 1
  12    6   38 1
  13    7    8 2
  14    7    9 2
  15    7   10 am
  16   10   11 1
  17   10   39 1
  18   11   12 ar
  19   11   16 ar
  20   12   13 ar
  21   12   40 1
  22   13   14 ar
  23   13   41 1
  24   14   15 ar
  25   14   17 1
  26   15   16 ar
  27   15   42 1
  28   16   43 1
  29   17   18 2
  30   17   19 am
  31   19   20 1
  32   19   24 1
  33   20   21 1
  34   20   44 1
  35   20   45 1
  36   21   22 1
  37   21   46 1
  38   21   47 1
  39   22   23 1
  40   22   25 1
  41   23   24 1
  42   23   48 1
  43   23   49 1
  44   24   50 1
  45   24   51 1
  46   25   26 ar
  47   25   30 ar
  48   26   27 ar
  49   26   31 1
  50   27   28 ar
  51   27   52 1
  52   28   29 ar
  53   28   53 1
  54   29   30 ar
  55   29   54 1
  56   30   55 1
  57   31   32 1
  58   32   56 1
  59   32   57 1
  60   32   58 1
  61   33   34 1
  62   34   59 1
  63   34   60 1
  64   34   61 1

#	End of record

