#	Name: ASD02039167
#	Creating user name:	WinNT
#	Creation time:	15. 06. 2019 20:17

#	Modifying user name:	WinNT
#	Modification time:	15. 06. 2019 20:17

#	Program:	/corina/corina34_cracker 3.40 0067  02.08.2006

@<TRIPOS>MOLECULE
ASD02039167
  34   36    0    0    0
SMALL
NO_CHARGES


@<TRIPOS>ATOM
   1 N1             0.0021     1.2625     0.3692 N.2     
   2 C2             0.0063    -0.0135     0.0889 C.2     
   3 N3             1.2922    -0.3755    -0.1077 N.2     
   4 C4             1.9960     0.7158     0.0676 C.2     
   5 O5             1.1352     1.6953     0.3609 O.3     
   6 C6             3.4938     0.8426    -0.0406 C.3     
   7 O7             3.8482     1.1699    -1.3857 O.3     
   8 C8             5.1723     1.3213    -1.6558 C.ar    
   9 N9            -1.1051    -0.8435     0.0088 N.pl3   
  10 C10           -2.3900    -0.3050     0.1298 C.ar    
  11 C11           -2.6365     1.0032    -0.2675 C.ar    
  12 C12           -3.9060     1.5330    -0.1471 C.ar    
  13 C13           -4.9330     0.7624     0.3692 C.ar    
  14 C14           -4.6907    -0.5420     0.7661 C.ar    
  15 C15           -3.4230    -1.0789     0.6419 C.ar    
  16 C16            5.5860     1.6392    -2.9409 C.ar    
  17 C17            6.9310     1.7929    -3.2153 C.ar    
  18 C18            7.8678     1.6298    -2.2057 C.ar    
  19 C19            7.4541     1.3128    -0.9203 C.ar    
  20 C20            6.1088     1.1633    -0.6450 C.ar    
  21 O21            9.1920     1.7802    -2.4760 O.3     
  22 Cl22          -6.5274     1.4322     0.5200 Cl      
  23 Cl23          -5.9814    -1.5057     1.4133 Cl      
  24 H24            3.8411     1.6298     0.6285 H       
  25 H25            3.9595    -0.1027     0.2381 H       
  26 H26           -0.9897    -1.7964    -0.1311 H       
  27 H27           -1.8355     1.6056    -0.6699 H       
  28 H28           -4.0976     2.5500    -0.4560 H       
  29 H29           -3.2340    -2.0962     0.9515 H       
  30 H30            4.8565     1.7662    -3.7271 H       
  31 H31            7.2531     2.0397    -4.2162 H       
  32 H32            8.1836     1.1854    -0.1342 H       
  33 H33            5.7866     0.9165     0.3559 H       
  34 H34            9.5167     2.6838    -2.3612 H       
@<TRIPOS>BOND
   1    1    2 2
   2    1    5 1
   3    2    3 1
   4    2    9 1
   5    3    4 2
   6    4    5 1
   7    4    6 1
   8    6    7 1
   9    6   24 1
  10    6   25 1
  11    7    8 1
  12    8   16 ar
  13    8   20 ar
  14    9   10 1
  15    9   26 1
  16   10   11 ar
  17   10   15 ar
  18   11   12 ar
  19   11   27 1
  20   12   13 ar
  21   12   28 1
  22   13   14 ar
  23   13   22 1
  24   14   15 ar
  25   14   23 1
  26   15   29 1
  27   16   17 ar
  28   16   30 1
  29   17   18 ar
  30   17   31 1
  31   18   19 ar
  32   18   21 1
  33   19   20 ar
  34   19   32 1
  35   20   33 1
  36   21   34 1

#	End of record

