#	Name: ASD02440061
#	Creating user name:	WinNT
#	Creation time:	15. 06. 2019 20:21

#	Modifying user name:	WinNT
#	Modification time:	15. 06. 2019 20:21

#	Program:	/corina/corina34_cracker 3.40 0067  02.08.2006

@<TRIPOS>MOLECULE
ASD02440061
  62   66    0    0    0
SMALL
NO_CHARGES


@<TRIPOS>ATOM
   1 N1             0.0165     1.3474    -0.7014 N.am    
   2 C2             0.0558    -0.0176    -0.7765 C.2     
   3 S3             1.7582    -0.4878    -0.6330 S.3     
   4 C4             2.3575     1.1746    -0.4767 C.2     
   5 C5             1.1516     2.0089    -0.5493 C.2     
   6 N6            -0.9705    -0.8245    -0.9256 N.2     
   7 C7            -1.2581     2.0636    -0.7938 C.3     
   8 C8            -1.8434     2.2274     0.5852 C.ar    
   9 O9             1.1935     3.2228    -0.4753 O.2     
  10 C10            3.6417     1.5833    -0.3244 C.2     
  11 C11            4.7043     0.5952    -0.0879 C.ar    
  12 C12            4.3762    -0.7247     0.2412 C.ar    
  13 C13            5.3767    -1.6479     0.4621 C.ar    
  14 C14            6.7043    -1.2742     0.3598 C.ar    
  15 C15            7.0414     0.0337     0.0341 C.ar    
  16 C16            6.0477     0.9689    -0.1964 C.ar    
  17 C17           -3.2241     1.3986     2.3576 C.ar    
  18 C18           -2.6845     1.2548     1.0963 C.ar    
  19 C19           -1.5327     3.3468     1.3368 C.ar    
  20 C20           -2.0649     3.5030     2.5998 C.ar    
  21 C21           -2.9190     2.5283     3.1194 C.ar    
  22 C22           -3.4935     2.6892     4.4708 C.2     
  23 O23           -4.2331     1.8377     4.9217 O.2     
  24 O24           -3.1970     3.7804     5.2032 O.3     
  25 O25            8.3482     0.3936    -0.0638 O.3     
  26 C26            8.8599     1.2061     0.8977 C.ar    
  27 C27            8.0956     1.5360     2.0078 C.ar    
  28 C28           10.1496     1.7027     0.7740 C.ar    
  29 C29           10.6675     2.5281     1.7531 C.ar    
  30 C30            9.9019     2.8595     2.8558 C.ar    
  31 C31            8.6183     2.3618     2.9841 C.ar    
  32 C32           -0.7744    -2.1774    -0.9843 C.ar    
  33 C33           -1.5994    -3.0383    -0.2568 C.ar    
  34 C34           -1.3959    -4.4010    -0.3207 C.ar    
  35 C35           -0.3772    -4.9158    -1.1031 C.ar    
  36 C36            0.4443    -4.0688    -1.8260 C.ar    
  37 C37            0.2483    -2.7044    -1.7765 C.ar    
  38 C38           -0.1611    -6.4058    -1.1676 C.3     
  39 F39           -0.9200    -6.9422    -2.2133 F       
  40 F40            1.1942    -6.6712    -1.3913 F       
  41 F41           -0.5568    -6.9872     0.0417 F       
  42 H42           -1.0919     3.0455    -1.2369 H       
  43 H43           -1.9494     1.4962    -1.4169 H       
  44 H44            3.8837     2.6345    -0.3768 H       
  45 H45            3.3405    -1.0201     0.3224 H       
  46 H46            5.1225    -2.6663     0.7164 H       
  47 H47            7.4826    -2.0024     0.5341 H       
  48 H48            6.3087     1.9858    -0.4496 H       
  49 H49           -3.8811     0.6391     2.7551 H       
  50 H50           -2.9195     0.3814     0.5061 H       
  51 H51           -0.8717     4.0998     0.9337 H       
  52 H52           -1.8213     4.3771     3.1855 H       
  53 H53           -3.5968     3.8414     6.0815 H       
  54 H54            7.0928     1.1478     2.1084 H       
  55 H55           10.7481     1.4438    -0.0869 H       
  56 H56           11.6715     2.9145     1.6574 H       
  57 H57           10.3087     3.5049     3.6202 H       
  58 H58            8.0238     2.6188     3.8484 H       
  59 H59           -2.3946    -2.6378     0.3545 H       
  60 H60           -2.0328    -5.0678     0.2415 H       
  61 H61            1.2379    -4.4774    -2.4340 H       
  62 H62            0.8900    -2.0445    -2.3416 H       
@<TRIPOS>BOND
   1    1    2 1
   2    1    5 am
   3    1    7 1
   4    2    3 1
   5    2    6 2
   6    3    4 1
   7    4    5 1
   8    4   10 2
   9    5    9 2
  10    6   32 1
  11    7    8 1
  12    7   42 1
  13    7   43 1
  14    8   19 ar
  15    8   18 ar
  16   10   11 1
  17   10   44 1
  18   11   12 ar
  19   11   16 ar
  20   12   13 ar
  21   12   45 1
  22   13   14 ar
  23   13   46 1
  24   14   15 ar
  25   14   47 1
  26   15   16 ar
  27   15   25 1
  28   16   48 1
  29   17   18 ar
  30   17   21 ar
  31   17   49 1
  32   18   50 1
  33   19   20 ar
  34   19   51 1
  35   20   21 ar
  36   20   52 1
  37   21   22 1
  38   22   23 2
  39   22   24 1
  40   24   53 1
  41   25   26 1
  42   26   28 ar
  43   26   27 ar
  44   27   31 ar
  45   27   54 1
  46   28   29 ar
  47   28   55 1
  48   29   30 ar
  49   29   56 1
  50   30   31 ar
  51   30   57 1
  52   31   58 1
  53   32   33 ar
  54   32   37 ar
  55   33   34 ar
  56   33   59 1
  57   34   35 ar
  58   34   60 1
  59   35   36 ar
  60   35   38 1
  61   36   37 ar
  62   36   61 1
  63   37   62 1
  64   38   39 1
  65   38   40 1
  66   38   41 1

#	End of record

