#	Name: ASD01870318
#	Creating user name:	WinNT
#	Creation time:	15. 06. 2019 19:39

#	Modifying user name:	WinNT
#	Modification time:	15. 06. 2019 19:39

#	Program:	/corina/corina34_cracker 3.40 0067  02.08.2006

@<TRIPOS>MOLECULE
ASD01870318
  58   60    0    0    0
SMALL
NO_CHARGES


@<TRIPOS>ATOM
   1 C1             0.1986     1.0123     1.6388 C.3     
   2 C2             0.1977    -0.4704     1.2614 C.3     
   3 C3             1.6333     1.5432     1.6174 C.3     
   4 C4             2.2189     1.3738     0.2141 C.3     
   5 C5             2.2181    -0.1089    -0.1633 C.3     
   6 C6             0.7833    -0.6398    -0.1419 C.3     
   7 C7             0.7826    -2.1003    -0.5136 C.2     
   8 N8            -0.3785    -2.7830    -0.5607 N.am    
   9 C9            -0.3793    -4.2028    -0.9221 C.3     
  10 C10           -1.8141    -4.7337    -0.9006 C.3     
  11 N11           -1.8148    -6.1573    -1.2630 N.3     
  12 O12            1.8267    -2.6612    -0.7703 O.2     
  13 C13           -3.1789    -6.7023    -1.2529 C.3     
  14 C14           -3.1950    -8.0490    -1.9821 C.3     
  15 C15           -3.6404    -6.8940     0.1948 C.3     
  16 C16           -2.7807    -7.9864     0.8504 C.3     
  17 C17           -1.2992    -7.6755     0.5357 C.3     
  18 C18           -1.0248    -8.3871    -0.8057 C.3     
  19 C19           -2.3662    -9.0612    -1.1755 C.3     
  20 N20           -3.0500    -9.2523     0.1265 N.am    
  21 C21           -3.7502   -10.3228     0.5511 C.2     
  22 O22           -4.3073   -10.3197     1.7768 O.3     
  23 O23           -3.8786   -11.2906    -0.1722 O.2     
  24 C24           -5.0471   -11.5064     2.1676 C.3     
  25 C25           -5.6024   -11.3188     3.5809 C.3     
  26 H26           -0.4058     1.5697     0.9232 H       
  27 H27           -0.2186     1.1330     2.6386 H       
  28 H28            0.8021    -1.0278     1.9771 H       
  29 H29           -0.8244    -0.8487     1.2767 H       
  30 H30            1.6339     2.5995     1.8863 H       
  31 H31            2.2377     0.9858     2.3331 H       
  32 H32            1.6145     1.9312    -0.5015 H       
  33 H33            3.2411     1.7521     0.1989 H       
  34 H34            2.6353    -0.2296    -1.1630 H       
  35 H35            2.8225    -0.6663     0.5524 H       
  36 H36            0.1790    -0.0824    -0.8575 H       
  37 H37           -1.2137    -2.3344    -0.3553 H       
  38 H38            0.0379    -4.3234    -1.9218 H       
  39 H39            0.2251    -4.7601    -0.2064 H       
  40 H40           -2.2313    -4.6130     0.0991 H       
  41 H41           -2.4185    -4.1763    -1.6163 H       
  42 H42           -1.3740    -6.3026    -2.1589 H       
  43 H43           -3.8506    -6.0083    -1.7581 H       
  44 H44           -4.2217    -8.4047    -2.0693 H       
  45 H45           -2.7619    -7.9315    -2.9754 H       
  46 H46           -3.5225    -5.9589     0.7423 H       
  47 H47           -4.6874    -7.1968     0.2071 H       
  48 H48           -2.9660    -8.0664     1.9215 H       
  49 H49           -1.1506    -6.6006     0.4326 H       
  50 H50           -0.6531    -8.0757     1.3169 H       
  51 H51           -0.7411    -7.6624    -1.5689 H       
  52 H52           -0.2435    -9.1375    -0.6845 H       
  53 H53           -2.2216    -9.9965    -1.7163 H       
  54 H54           -5.8708   -11.6666     1.4719 H       
  55 H55           -4.3832   -12.3707     2.1498 H       
  56 H56           -4.7788   -11.1586     4.2766 H       
  57 H57           -6.2663   -10.4545     3.5986 H       
  58 H58           -6.1578   -12.2096     3.8742 H       
@<TRIPOS>BOND
   1    1    2 1
   2    1    3 1
   3    1   26 1
   4    1   27 1
   5    2    6 1
   6    2   28 1
   7    2   29 1
   8    3    4 1
   9    3   30 1
  10    3   31 1
  11    4    5 1
  12    4   32 1
  13    4   33 1
  14    5    6 1
  15    5   34 1
  16    5   35 1
  17    6    7 1
  18    6   36 1
  19    7    8 am
  20    7   12 2
  21    8    9 1
  22    8   37 1
  23    9   10 1
  24    9   38 1
  25    9   39 1
  26   10   11 1
  27   10   40 1
  28   10   41 1
  29   11   13 1
  30   11   42 1
  31   13   14 1
  32   13   15 1
  33   13   43 1
  34   14   19 1
  35   14   44 1
  36   14   45 1
  37   15   16 1
  38   15   46 1
  39   15   47 1
  40   16   17 1
  41   16   20 1
  42   16   48 1
  43   17   18 1
  44   17   49 1
  45   17   50 1
  46   18   19 1
  47   18   51 1
  48   18   52 1
  49   19   20 1
  50   19   53 1
  51   20   21 am
  52   21   22 1
  53   21   23 2
  54   22   24 1
  55   24   25 1
  56   24   54 1
  57   24   55 1
  58   25   56 1
  59   25   57 1
  60   25   58 1

#	End of record

