#	Name: ASD05730134
#	Creating user name:	WinNT
#	Creation time:	15. 06. 2019 21:02

#	Modifying user name:	WinNT
#	Modification time:	15. 06. 2019 21:02

#	Program:	/corina/corina34_cracker 3.40 0067  02.08.2006

@<TRIPOS>MOLECULE
ASD05730134
  85   90    0    0    0
SMALL
NO_CHARGES


@<TRIPOS>ATOM
   1 N1             0.3707     1.7884     0.8721 N.pl3   
   2 C2             0.3096     0.4037     0.6794 C.ar    
   3 C3            -0.6944    -0.1441    -0.1084 C.ar    
   4 C4            -0.7548    -1.5103    -0.2984 C.ar    
   5 C5             0.1882    -2.3367     0.2985 C.ar    
   6 C6             1.1919    -1.7890     1.0866 C.ar    
   7 C7             1.2563    -0.4222     1.2713 C.ar    
   8 N8             0.1267    -3.7227     0.1060 N.pl3   
   9 C9             1.2910    -4.4524    -0.0391 C.ar    
  10 N10            1.2122    -5.7726    -0.1058 N.ar    
  11 C11            2.3094    -6.5085    -0.2452 C.ar    
  12 C12            3.5583    -5.8547    -0.3205 C.ar    
  13 C13            3.5887    -4.4540    -0.2450 C.ar    
  14 N14            2.4479    -3.8035    -0.1119 N.ar    
  15 N15            2.2343    -7.8770    -0.3145 N.am    
  16 C16            3.3463    -8.6233    -0.4553 C.2     
  17 C17            4.6624    -7.9819    -0.5369 C.2     
  18 C18            4.7470    -6.6050    -0.4694 C.2     
  19 C19            0.9276    -8.5345    -0.2336 C.3     
  20 O20            3.2585    -9.8367    -0.5149 O.2     
  21 C21            5.8826    -8.7984    -0.6900 C.2     
  22 C22           -0.5479     2.6701     0.1476 C.3     
  23 C23            0.3526    -8.6814    -1.6189 C.2     
  24 C24           -1.4949     3.3497     1.1406 C.3     
  25 C25           -2.4113     4.3149     0.3852 C.3     
  26 N26           -1.5982     5.3208    -0.3101 N.3     
  27 C27           -0.7146     4.6957    -1.3026 C.3     
  28 C28            0.2524     3.7419    -0.5976 C.3     
  29 N29           -0.8512    -9.2625    -1.7906 N.am    
  30 C30           -1.7116    -9.7905    -0.7162 C.3     
  31 C31            6.8736    -8.8968     0.2205 C.2     
  32 C32            7.9148    -9.7235    -0.1486 C.2     
  33 C33            7.7834   -10.2987    -1.3474 C.2     
  34 S34            6.2667    -9.7996    -2.0841 S.3     
  35 S35            9.3149    -9.9999     0.8847 S.o2    
  36 C36            8.8557   -11.4348     1.8950 C.3     
  37 C37           10.0044   -11.7779     2.8456 C.3     
  38 O38            9.6426   -12.9083     3.6415 O.3     
  39 C39           10.6519   -13.3134     4.5684 C.3     
  40 O40           10.3565   -10.3400    -0.0201 O.2     
  41 O41            9.3946    -8.8300     1.6872 O.2     
  42 C42            1.3494     2.3559     1.8029 C.3     
  43 C43           -1.5268    -9.4691    -3.0800 C.3     
  44 C44           -2.8838   -10.1415    -2.7837 C.3     
  45 C45           -3.1445    -9.7592    -1.3041 C.3     
  46 O46            0.9732    -8.2768    -2.5791 O.2     
  47 H47           -1.4282     0.4986    -0.5720 H       
  48 H48           -1.5356    -1.9363    -0.9110 H       
  49 H49            1.9251    -2.4318     1.5510 H       
  50 H50            2.0369     0.0037     1.8842 H       
  51 H51           -0.7333    -4.1703     0.0745 H       
  52 H52            4.5254    -3.9191    -0.2986 H       
  53 H53            5.7052    -6.1102    -0.5276 H       
  54 H54            1.0439    -9.5197     0.2179 H       
  55 H55            0.2549    -7.9321     0.3769 H       
  56 H56           -1.1275     2.0848    -0.5663 H       
  57 H57           -2.0979     2.5939     1.6438 H       
  58 H58           -0.9131     3.9024     1.8783 H       
  59 H59           -3.0027     3.7595    -0.3428 H       
  60 H60           -3.0772     4.8110     1.0912 H       
  61 H61           -2.1814     6.0246    -0.7376 H       
  62 H62           -1.3140     4.1386    -2.0227 H       
  63 H63           -0.1483     5.4685    -1.8224 H       
  64 H64            0.8617     4.3008     0.1128 H       
  65 H65            0.8977     3.2664    -1.3362 H       
  66 H66           -1.4253   -10.8127    -0.4688 H       
  67 H67           -1.6498    -9.1541     0.1665 H       
  68 H68            6.8536    -8.3700     1.1631 H       
  69 H69            8.4991   -10.9726    -1.7947 H       
  70 H70            7.9625   -11.2005     2.4741 H       
  71 H71            8.6546   -12.2869     1.2457 H       
  72 H72           10.8976   -12.0122     2.2665 H       
  73 H73           10.2055   -10.9258     3.4949 H       
  74 H74           10.8665   -12.4932     5.2534 H       
  75 H75           10.3005   -14.1765     5.1338 H       
  76 H76           11.5585   -13.5796     4.0250 H       
  77 H77            2.2749     2.5729     1.2695 H       
  78 H78            0.9524     3.2764     2.2310 H       
  79 H79            1.5491     1.6407     2.6009 H       
  80 H80           -1.6880    -8.5098    -3.5719 H       
  81 H81           -0.9229   -10.1169    -3.7153 H       
  82 H82           -3.6641    -9.7358    -3.4277 H       
  83 H83           -2.8114   -11.2231    -2.8982 H       
  84 H84           -3.7819   -10.4968    -0.8165 H       
  85 H85           -3.5761    -8.7612    -1.2287 H       
@<TRIPOS>BOND
   1    1    2 1
   2    1   22 1
   3    1   42 1
   4    2    3 ar
   5    2    7 ar
   6    3    4 ar
   7    3   47 1
   8    4    5 ar
   9    4   48 1
  10    5    6 ar
  11    5    8 1
  12    6    7 ar
  13    6   49 1
  14    7   50 1
  15    8    9 1
  16    8   51 1
  17    9   10 ar
  18    9   14 ar
  19   10   11 ar
  20   11   12 ar
  21   11   15 1
  22   12   13 ar
  23   12   18 1
  24   13   14 ar
  25   13   52 1
  26   15   16 am
  27   15   19 1
  28   16   17 1
  29   16   20 2
  30   17   18 2
  31   17   21 1
  32   18   53 1
  33   19   23 1
  34   19   54 1
  35   19   55 1
  36   21   31 2
  37   21   34 1
  38   22   24 1
  39   22   28 1
  40   22   56 1
  41   23   46 2
  42   23   29 am
  43   24   25 1
  44   24   57 1
  45   24   58 1
  46   25   26 1
  47   25   59 1
  48   25   60 1
  49   26   27 1
  50   26   61 1
  51   27   28 1
  52   27   62 1
  53   27   63 1
  54   28   64 1
  55   28   65 1
  56   29   43 1
  57   29   30 1
  58   30   45 1
  59   30   66 1
  60   30   67 1
  61   31   32 1
  62   31   68 1
  63   32   33 2
  64   32   35 1
  65   33   34 1
  66   33   69 1
  67   35   36 1
  68   35   40 2
  69   35   41 2
  70   36   37 1
  71   36   70 1
  72   36   71 1
  73   37   38 1
  74   37   72 1
  75   37   73 1
  76   38   39 1
  77   39   74 1
  78   39   75 1
  79   39   76 1
  80   42   77 1
  81   42   78 1
  82   42   79 1
  83   43   44 1
  84   43   80 1
  85   43   81 1
  86   44   45 1
  87   44   82 1
  88   44   83 1
  89   45   84 1
  90   45   85 1

#	End of record

