#	Name: ASD03091149
#	Creating user name:	WinNT
#	Creation time:	15. 06. 2019 20:30

#	Modifying user name:	WinNT
#	Modification time:	15. 06. 2019 20:30

#	Program:	/corina/corina34_cracker 3.40 0067  02.08.2006

@<TRIPOS>MOLECULE
ASD03091149
  51   55    0    0    0
SMALL
NO_CHARGES


@<TRIPOS>ATOM
   1 C1             0.5197     1.4471    -0.0249 C.3     
   2 N2             0.1956     0.0184    -0.0266 N.am    
   3 C3            -0.0043    -0.6354     1.1593 C.2     
   4 N4            -0.2957    -1.9080     1.2324 N.2     
   5 C5            -0.4207    -2.6710     0.1275 C.ar    
   6 C6            -0.2319    -2.0798    -1.1427 C.ar    
   7 C7             0.0902    -0.6462    -1.2010 C.2     
   8 C8             0.1154     0.1332     2.4162 C.ar    
   9 O9             0.2637    -0.0804    -2.2648 O.2     
  10 C10           -0.7321    -4.0317     0.2120 C.ar    
  11 C11           -0.8508    -4.7751    -0.9268 C.ar    
  12 C12           -0.6654    -4.1964    -2.1825 C.ar    
  13 C13           -0.3567    -2.8513    -2.2958 C.ar    
  14 N14           -0.7924    -4.9790    -3.3334 N.3     
  15 C15            0.1145    -4.5114    -4.3910 C.3     
  16 C16            0.6905    -5.6929    -5.1571 C.3     
  17 C17           -0.3086    -6.3522    -6.0862 C.3     
  18 N18           -1.5851    -5.6237    -6.1130 N.3     
  19 C19           -2.3957    -5.9863    -4.9404 C.3     
  20 C20           -2.1805    -4.9917    -3.8103 C.3     
  21 C21           -1.4206    -4.2081    -6.3650 C.3     
  22 C22           -0.6197    -3.5181    -5.2730 C.3     
  23 C23            1.1451     1.0622     2.5745 C.ar    
  24 C24            1.2511     1.7761     3.7501 C.ar    
  25 C25            0.3399     1.5727     4.7712 C.ar    
  26 C26           -0.6832     0.6534     4.6208 C.ar    
  27 C27           -0.8043    -0.0627     3.4479 C.ar    
  28 H28            1.5993     1.5747     0.0538 H       
  29 H29            0.1668     1.9008    -0.9511 H       
  30 H30            0.0340     1.9288     0.8237 H       
  31 H31           -0.8782    -4.4939     1.1771 H       
  32 H32           -1.0911    -5.8255    -0.8545 H       
  33 H33           -0.2135    -2.4047    -3.2686 H       
  34 H34            0.9400    -3.9805    -3.9169 H       
  35 H35            1.5399    -5.3469    -5.7461 H       
  36 H36            1.0442    -6.4347    -4.4410 H       
  37 H37            0.1066    -6.3797    -7.0936 H       
  38 H38           -0.4885    -7.3730    -5.7488 H       
  39 H39           -3.4493    -5.9901    -5.2196 H       
  40 H40           -2.1111    -6.9823    -4.6013 H       
  41 H41           -2.8366    -5.2533    -2.9801 H       
  42 H42           -2.4415    -3.9941    -4.1634 H       
  43 H43           -0.9070    -4.0759    -7.3172 H       
  44 H44           -2.4047    -3.7438    -6.4287 H       
  45 H45           -1.2974    -2.9290    -4.6551 H       
  46 H46            0.1070    -2.8499    -5.7351 H       
  47 H47            1.8575     1.2214     1.7785 H       
  48 H48            2.0474     2.4952     3.8739 H       
  49 H49            0.4277     2.1337     5.6898 H       
  50 H50           -1.3910     0.4991     5.4218 H       
  51 H51           -1.6033    -0.7799     3.3317 H       
@<TRIPOS>BOND
   1    1    2 1
   2    1   28 1
   3    1   29 1
   4    1   30 1
   5    2    3 1
   6    2    7 am
   7    3    4 2
   8    3    8 1
   9    4    5 1
  10    5    6 ar
  11    5   10 ar
  12    6    7 1
  13    6   13 ar
  14    7    9 2
  15    8   23 ar
  16    8   27 ar
  17   10   11 ar
  18   10   31 1
  19   11   12 ar
  20   11   32 1
  21   12   13 ar
  22   12   14 1
  23   13   33 1
  24   14   15 1
  25   14   20 1
  26   15   16 1
  27   15   22 1
  28   15   34 1
  29   16   17 1
  30   16   35 1
  31   16   36 1
  32   17   18 1
  33   17   37 1
  34   17   38 1
  35   18   19 1
  36   18   21 1
  37   19   20 1
  38   19   39 1
  39   19   40 1
  40   20   41 1
  41   20   42 1
  42   21   22 1
  43   21   43 1
  44   21   44 1
  45   22   45 1
  46   22   46 1
  47   23   24 ar
  48   23   47 1
  49   24   25 ar
  50   24   48 1
  51   25   26 ar
  52   25   49 1
  53   26   27 ar
  54   26   50 1
  55   27   51 1

#	End of record

