#	Name: ASD05060108
#	Creating user name:	WinNT
#	Creation time:	15. 06. 2019 20:56

#	Modifying user name:	WinNT
#	Modification time:	15. 06. 2019 20:56

#	Program:	/corina/corina34_cracker 3.40 0067  02.08.2006

@<TRIPOS>MOLECULE
ASD05060108
  52   54    0    0    0
SMALL
NO_CHARGES


@<TRIPOS>ATOM
   1 C1            -0.0168     1.3867     0.0097 C.ar    
   2 C2             0.0021    -0.0041     0.0020 C.ar    
   3 C3             1.2069    -0.6720    -0.0131 C.ar    
   4 C4             2.4051     0.0293    -0.0208 C.ar    
   5 C5             2.4097     1.3956    -0.0130 C.ar    
   6 N6            -1.0295     2.3220     0.0189 N.pl3   
   7 C7             1.2001     2.0928     0.0018 C.ar    
   8 C8             0.8443     3.5140     0.0129 C.2     
   9 C9            -0.4964     3.5838     0.0236 C.2     
  10 C10           -2.4002     2.0260     0.0223 C.ar    
  11 C11           -2.9678     1.3770     1.1106 C.ar    
  12 C12           -4.3175     1.0857     1.1134 C.ar    
  13 C13           -5.1065     1.4414     0.0292 C.ar    
  14 C14           -4.5399     2.0899    -1.0585 C.ar    
  15 C15           -3.1914     2.3869    -1.0600 C.ar    
  16 C16            1.8022     4.6775     0.0101 C.3     
  17 C17           -1.2963     4.8610     0.0334 C.3     
  18 O18           -6.4354     1.1540     0.0324 O.3     
  19 C19           -7.1873     1.5491    -1.1168 C.3     
  20 O20           -0.7382     5.7653     0.9888 O.3     
  21 C21           -1.2563     5.4892    -1.3359 C.2     
  22 O22           -1.8208     4.8611    -2.3792 O.3     
  23 O23           -0.7161     6.5583    -1.4945 O.2     
  24 C24           -1.6932     6.6490     1.5796 C.3     
  25 C25           -2.7646     5.8315     2.3039 C.3     
  26 C26           -0.9881     7.5664     2.5807 C.3     
  27 C27           -2.3493     7.4952     0.4868 C.3     
  28 H28           -0.9247    -0.5585     0.0083 H       
  29 H29            1.2195    -1.7519    -0.0187 H       
  30 H30            3.3410    -0.5095    -0.0326 H       
  31 H31            3.3457     1.9344    -0.0184 H       
  32 H32           -2.3536     1.0996     1.9546 H       
  33 H33           -4.7591     0.5805     1.9597 H       
  34 H34           -5.1546     2.3663    -1.9024 H       
  35 H35           -2.7514     2.8960    -1.9047 H       
  36 H36            2.0229     4.9638    -1.0182 H       
  37 H37            1.3511     5.5207     0.5332 H       
  38 H38            2.7252     4.3894     0.5132 H       
  39 H39           -2.3294     4.6407     0.3020 H       
  40 H40           -6.7835     1.0576    -2.0019 H       
  41 H41           -8.2303     1.2609    -0.9852 H       
  42 H42           -7.1218     2.6302    -1.2397 H       
  43 H43           -1.7698     5.3032    -3.2377 H       
  44 H44           -2.2972     5.2287     3.0825 H       
  45 H45           -3.4931     6.5056     2.7546 H       
  46 H46           -3.2669     5.1779     1.5907 H       
  47 H47           -0.2248     8.1488     2.0646 H       
  48 H48           -1.7166     8.2405     3.0313 H       
  49 H49           -0.5207     6.9636     3.3592 H       
  50 H50           -2.8516     6.8416    -0.2264 H       
  51 H51           -3.0778     8.1693     0.9374 H       
  52 H52           -1.5860     8.0776    -0.0293 H       
@<TRIPOS>BOND
   1    1    2 ar
   2    1    7 ar
   3    1    6 1
   4    2    3 ar
   5    2   28 1
   6    3    4 ar
   7    3   29 1
   8    4    5 ar
   9    4   30 1
  10    5    7 ar
  11    5   31 1
  12    6    9 1
  13    6   10 1
  14    7    8 1
  15    8    9 2
  16    8   16 1
  17    9   17 1
  18   10   11 ar
  19   10   15 ar
  20   11   12 ar
  21   11   32 1
  22   12   13 ar
  23   12   33 1
  24   13   14 ar
  25   13   18 1
  26   14   15 ar
  27   14   34 1
  28   15   35 1
  29   16   36 1
  30   16   37 1
  31   16   38 1
  32   17   20 1
  33   17   21 1
  34   17   39 1
  35   18   19 1
  36   19   40 1
  37   19   41 1
  38   19   42 1
  39   20   24 1
  40   21   22 1
  41   21   23 2
  42   22   43 1
  43   24   25 1
  44   24   26 1
  45   24   27 1
  46   25   44 1
  47   25   45 1
  48   25   46 1
  49   26   47 1
  50   26   48 1
  51   26   49 1
  52   27   50 1
  53   27   51 1
  54   27   52 1

#	End of record

