#	Name: ASD01870294
#	Creating user name:	WinNT
#	Creation time:	15. 06. 2019 19:38

#	Modifying user name:	WinNT
#	Modification time:	15. 06. 2019 19:38

#	Program:	/corina/corina34_cracker 3.40 0067  02.08.2006

@<TRIPOS>MOLECULE
ASD01870294
  33   35    0    0    0
SMALL
NO_CHARGES


@<TRIPOS>ATOM
   1 N1             0.1139     1.3751    -0.6733 N.2     
   2 C2             0.1564     0.0568    -0.8131 C.2     
   3 C3             1.3610    -0.5063    -0.6029 C.2     
   4 S4             2.5035     0.7727    -0.1979 S.3     
   5 C5             1.2209     1.9692    -0.3541 C.2     
   6 N6             1.3719     3.3363    -0.1651 N.am    
   7 C7             0.2219     4.2295    -0.3260 C.3     
   8 C8             2.5765     3.8418     0.1663 C.2     
   9 C9             2.7614     5.3034     0.2678 C.ar    
  10 O10            3.5110     3.0944     0.3818 O.2     
  11 C11            1.7205     6.1110     0.7314 C.ar    
  12 C12            3.9798     5.8825    -0.0940 C.ar    
  13 C13            4.1469     7.2472     0.0027 C.ar    
  14 C14            3.1084     8.0449     0.4585 C.ar    
  15 C15            1.8985     7.4746     0.8241 C.ar    
  16 F16            3.2778     9.3819     0.5522 F       
  17 C17           -1.0387    -0.7404    -1.1749 C.ar    
  18 C18           -2.2662    -0.1083    -1.3826 C.ar    
  19 N19           -3.3268    -0.8234    -1.7050 N.ar    
  20 C20           -3.2285    -2.1364    -1.8315 C.ar    
  21 C21           -2.0147    -2.7673    -1.6264 C.ar    
  22 N22           -0.9451    -2.0605    -1.3086 N.ar    
  23 H23            1.5878    -1.5601    -0.6702 H       
  24 H24           -0.2715     4.3636     0.6367 H       
  25 H25            0.5617     5.1961    -0.6979 H       
  26 H26           -0.4803     3.7933    -1.0365 H       
  27 H27            0.7777     5.6679     1.0164 H       
  28 H28            4.7896     5.2621    -0.4485 H       
  29 H29            5.0886     7.6961    -0.2769 H       
  30 H30            1.0941     8.1001     1.1821 H       
  31 H31           -2.3473     0.9637    -1.2791 H       
  32 H32           -4.0993    -2.7181    -2.0956 H       
  33 H33           -1.9406    -3.8397    -1.7304 H       
@<TRIPOS>BOND
   1    1    2 1
   2    1    5 2
   3    2    3 2
   4    2   17 1
   5    3    4 1
   6    3   23 1
   7    4    5 1
   8    5    6 1
   9    6    7 1
  10    6    8 am
  11    7   24 1
  12    7   25 1
  13    7   26 1
  14    8    9 1
  15    8   10 2
  16    9   12 ar
  17    9   11 ar
  18   11   15 ar
  19   11   27 1
  20   12   13 ar
  21   12   28 1
  22   13   14 ar
  23   13   29 1
  24   14   15 ar
  25   14   16 1
  26   15   30 1
  27   17   18 ar
  28   17   22 ar
  29   18   19 ar
  30   18   31 1
  31   19   20 ar
  32   20   21 ar
  33   20   32 1
  34   21   22 ar
  35   21   33 1

#	End of record

