#	Name: ASD01884370
#	Creating user name:	WinNT
#	Creation time:	15. 06. 2019 19:48

#	Modifying user name:	WinNT
#	Modification time:	15. 06. 2019 19:48

#	Program:	/corina/corina34_cracker 3.40 0067  02.08.2006

@<TRIPOS>MOLECULE
ASD01884370
  62   64    0    0    0
SMALL
NO_CHARGES


@<TRIPOS>ATOM
   1 C1            -0.0168     1.3884     0.0097 C.2     
   2 C2             0.0021    -0.0041     0.0020 C.2     
   3 C3            -1.2095    -0.6965     0.0104 C.2     
   4 C4            -2.3831    -0.0157     0.0252 C.2     
   5 N5            -2.4093     1.3392     0.0327 N.am    
   6 C6            -1.2693     2.0558     0.0312 C.2     
   7 O7            -1.3129     3.2741     0.0380 O.2     
   8 C8            -3.6983     2.0352     0.0483 C.3     
   9 C9             1.2059     2.1337     0.0020 C.1     
  10 N10            2.1759     2.7249    -0.0041 N.1     
  11 N11            1.6901    -1.1066     1.3585 N.3     
  12 C12            2.8290    -2.0352     1.3670 C.3     
  13 C13            3.2431    -2.3172     2.8131 C.3     
  14 N14            2.1012    -2.8822     3.5456 N.3     
  15 C15            0.9623    -1.9536     3.5371 C.3     
  16 C16            0.5482    -1.6716     2.0910 C.3     
  17 O17            2.4792    -3.2358     4.9140 O.3     
  18 C18           -4.1338     2.2698     1.4962 C.3     
  19 C19            1.3105    -0.7515    -0.0155 C.3     
  20 C20           -5.4800     2.9967     1.5124 C.3     
  21 C21           -5.9753     3.1206     2.9547 C.3     
  22 C22           -5.3132     4.3926     0.9087 C.3     
  23 C23            1.7318    -2.5485     5.9195 C.3     
  24 C24            2.2018    -2.9871     7.2825 C.ar    
  25 C25            3.2295    -2.3091     7.9104 C.ar    
  26 C26            3.6607    -2.7115     9.1608 C.ar    
  27 C27            3.0636    -3.7915     9.7832 C.ar    
  28 C28            2.0349    -4.4692     9.1556 C.ar    
  29 C29            1.6010    -4.0642     7.9074 C.ar    
  30 C30            1.3843    -5.6471     9.8340 C.3     
  31 F31            1.9873    -5.8602    11.0782 F       
  32 F32            0.0216    -5.3868    10.0147 F       
  33 F33            1.5398    -6.7876     9.0388 F       
  34 H34           -1.2130    -1.7765     0.0046 H       
  35 H35           -3.3137    -0.5638     0.0308 H       
  36 H36           -3.5999     2.9937    -0.4613 H       
  37 H37           -4.4456     1.4275    -0.4619 H       
  38 H38            2.5411    -2.9683     0.8826 H       
  39 H39            3.6659    -1.5892     0.8295 H       
  40 H40            4.0692    -3.0283     2.8228 H       
  41 H41            3.5569    -1.3883     3.2893 H       
  42 H42            0.1254    -2.3996     4.0746 H       
  43 H43            1.2502    -1.0205     4.0215 H       
  44 H44           -0.2779    -0.9605     2.0813 H       
  45 H45            0.2344    -2.6005     1.6148 H       
  46 H46           -4.2323     1.3113     2.0058 H       
  47 H47           -3.3866     2.8775     2.0064 H       
  48 H48            1.2023    -1.6595    -0.6087 H       
  49 H49            2.0835    -0.1207    -0.4544 H       
  50 H50           -6.2051     2.4317     0.9266 H       
  51 H51           -5.2502     3.6856     3.5406 H       
  52 H52           -6.9344     3.6385     2.9663 H       
  53 H53           -6.0942     2.1261     3.3848 H       
  54 H54           -4.9604     4.3043    -0.1188 H       
  55 H55           -6.2723     4.9105     0.9203 H       
  56 H56           -4.5881     4.9575     1.4946 H       
  57 H57            1.8808    -1.4741     5.8121 H       
  58 H58            0.6729    -2.7814     5.8079 H       
  59 H59            3.6961    -1.4651     7.4240 H       
  60 H60            4.4643    -2.1821     9.6511 H       
  61 H61            3.4009    -4.1063    10.7597 H       
  62 H62            0.7974    -4.5936     7.4170 H       
@<TRIPOS>BOND
   1    1    2 2
   2    1    9 1
   3    1    6 1
   4    2    3 1
   5    2   19 1
   6    3    4 2
   7    3   34 1
   8    4    5 1
   9    4   35 1
  10    5    6 am
  11    5    8 1
  12    6    7 2
  13    8   18 1
  14    8   36 1
  15    8   37 1
  16    9   10 3
  17   11   12 1
  18   11   16 1
  19   11   19 1
  20   12   13 1
  21   12   38 1
  22   12   39 1
  23   13   14 1
  24   13   40 1
  25   13   41 1
  26   14   15 1
  27   14   17 1
  28   15   16 1
  29   15   42 1
  30   15   43 1
  31   16   44 1
  32   16   45 1
  33   17   23 1
  34   18   20 1
  35   18   46 1
  36   18   47 1
  37   19   48 1
  38   19   49 1
  39   20   21 1
  40   20   22 1
  41   20   50 1
  42   21   51 1
  43   21   52 1
  44   21   53 1
  45   22   54 1
  46   22   55 1
  47   22   56 1
  48   23   24 1
  49   23   57 1
  50   23   58 1
  51   24   25 ar
  52   24   29 ar
  53   25   26 ar
  54   25   59 1
  55   26   27 ar
  56   26   60 1
  57   27   28 ar
  58   27   61 1
  59   28   30 1
  60   28   29 ar
  61   29   62 1
  62   30   31 1
  63   30   32 1
  64   30   33 1

#	End of record

