#	Name: ASD01410422
#	Creating user name:	WinNT
#	Creation time:	15. 06. 2019 19:17

#	Modifying user name:	WinNT
#	Modification time:	15. 06. 2019 19:17

#	Program:	/corina/corina34_cracker 3.40 0067  02.08.2006

@<TRIPOS>MOLECULE
ASD01410422
  75   80    0    0    0
SMALL
NO_CHARGES


@<TRIPOS>ATOM
   1 C1            -0.0557     1.4041    -0.7503 C.ar    
   2 C2            -0.0150     0.0258    -0.5001 C.ar    
   3 C3            -1.1594    -0.6590    -0.2097 C.ar    
   4 C4            -2.3786     0.0068    -0.1601 C.ar    
   5 C5            -2.4389     1.3918    -0.4088 C.ar    
   6 C6            -1.2666     2.0893    -0.6995 C.ar    
   7 C7             1.1890     2.1321    -1.0626 C.2     
   8 O8             2.3627     1.4719    -1.1068 O.3     
   9 O9             1.1557     3.3271    -1.2798 O.2     
  10 N10           -3.6723    -0.3935     0.0987 N.pl3   
  11 C11           -4.4685     0.7170     0.0059 C.2     
  12 N12           -3.7382     1.7634    -0.2926 N.2     
  13 C13           -4.1135    -1.7545     0.4137 C.3     
  14 C14           -2.9178    -2.7067     0.3467 C.3     
  15 C15           -3.3786    -4.1281     0.6756 C.3     
  16 C16           -3.9757    -4.1575     2.0840 C.3     
  17 C17           -5.1715    -3.2054     2.1510 C.3     
  18 C18           -4.7106    -1.7840     1.8220 C.3     
  19 C19           -5.9321     0.7328     0.2111 C.ar    
  20 C20           -6.5493     1.8567     0.7637 C.ar    
  21 C21           -7.9141     1.8677     0.9535 C.ar    
  22 C22           -8.6757     0.7622     0.5963 C.ar    
  23 C23           -8.0653    -0.3580     0.0466 C.ar    
  24 C24           -6.7018    -0.3739    -0.1525 C.ar    
  25 O25          -10.0205     0.7766     0.7853 O.3     
  26 C26          -10.7428    -0.3933     0.3958 C.3     
  27 C27          -12.2098    -0.1950     0.6782 C.ar    
  28 C28          -12.6521     0.9875     1.2314 C.ar    
  29 C29          -14.0050     1.1708     1.4925 C.ar    
  30 C30          -14.9146     0.1630     1.1962 C.ar    
  31 C31          -14.4768    -1.0216     0.6427 C.ar    
  32 C32          -13.1214    -1.2053     0.3747 C.ar    
  33 C33          -12.6479    -2.4789    -0.2207 C.ar    
  34 C34          -13.0326    -3.6969     0.3367 C.ar    
  35 C35          -12.5894    -4.8788    -0.2209 C.ar    
  36 C36          -11.7636    -4.8559    -1.3318 C.ar    
  37 C37          -11.3783    -3.6486    -1.8889 C.ar    
  38 C38          -11.8215    -2.4613    -1.3428 C.ar    
  39 Cl39         -11.2090    -6.3462    -2.0282 Cl      
  40 N40          -14.4512     2.3709     2.0546 N.am    
  41 C41          -15.6368     2.8908     1.6798 C.2     
  42 C42          -16.0688     4.2363     2.2033 C.3     
  43 O43          -16.3560     2.2759     0.9211 O.2     
  44 H44            0.9286    -0.4984    -0.5376 H       
  45 H45           -1.1176    -1.7211    -0.0184 H       
  46 H46           -1.2991     3.1515    -0.8918 H       
  47 H47            3.1511     1.9915    -1.3154 H       
  48 H48           -4.8683    -2.0679    -0.3076 H       
  49 H49           -2.4923    -2.6857    -0.6567 H       
  50 H50           -2.1630    -2.3934     1.0680 H       
  51 H51           -4.1333    -4.4414    -0.0457 H       
  52 H52           -2.5267    -4.8064     0.6279 H       
  53 H53           -4.3040    -5.1701     2.3183 H       
  54 H54           -3.2209    -3.8442     2.8053 H       
  55 H55           -5.9262    -3.5187     1.4297 H       
  56 H56           -5.5969    -3.2264     3.1543 H       
  57 H57           -3.9559    -1.4707     2.5433 H       
  58 H58           -5.5625    -1.1057     1.8697 H       
  59 H59           -5.9577     2.7163     1.0423 H       
  60 H60           -8.3922     2.7367     1.3809 H       
  61 H61           -8.6607    -1.2157    -0.2296 H       
  62 H62           -6.2280    -1.2451    -0.5801 H       
  63 H63          -10.5987    -0.5713    -0.6698 H       
  64 H64          -10.3769    -1.2510     0.9602 H       
  65 H65          -11.9469     1.7721     1.4625 H       
  66 H66          -15.9653     0.3076     1.3999 H       
  67 H67          -15.1841    -1.8048     0.4132 H       
  68 H68          -13.6762    -3.7157     1.2037 H       
  69 H69          -12.8869    -5.8232     0.2103 H       
  70 H70          -10.7333    -3.6359    -2.7552 H       
  71 H71          -11.5206    -1.5200    -1.7783 H       
  72 H72          -13.9074     2.8292     2.7143 H       
  73 H73          -15.2992     4.6327     2.8657 H       
  74 H74          -16.2169     4.9207     1.3680 H       
  75 H75          -17.0027     4.1288     2.7549 H       
@<TRIPOS>BOND
   1    1    2 ar
   2    1    7 1
   3    1    6 ar
   4    2    3 ar
   5    2   44 1
   6    3    4 ar
   7    3   45 1
   8    4    5 ar
   9    4   10 1
  10    5    6 ar
  11    5   12 1
  12    6   46 1
  13    7    8 1
  14    7    9 2
  15    8   47 1
  16   10   11 1
  17   10   13 1
  18   11   12 2
  19   11   19 1
  20   13   14 1
  21   13   18 1
  22   13   48 1
  23   14   15 1
  24   14   49 1
  25   14   50 1
  26   15   16 1
  27   15   51 1
  28   15   52 1
  29   16   17 1
  30   16   53 1
  31   16   54 1
  32   17   18 1
  33   17   55 1
  34   17   56 1
  35   18   57 1
  36   18   58 1
  37   19   20 ar
  38   19   24 ar
  39   20   21 ar
  40   20   59 1
  41   21   22 ar
  42   21   60 1
  43   22   23 ar
  44   22   25 1
  45   23   24 ar
  46   23   61 1
  47   24   62 1
  48   25   26 1
  49   26   27 1
  50   26   63 1
  51   26   64 1
  52   27   28 ar
  53   27   32 ar
  54   28   29 ar
  55   28   65 1
  56   29   30 ar
  57   29   40 1
  58   30   31 ar
  59   30   66 1
  60   31   32 ar
  61   31   67 1
  62   32   33 1
  63   33   34 ar
  64   33   38 ar
  65   34   35 ar
  66   34   68 1
  67   35   36 ar
  68   35   69 1
  69   36   37 ar
  70   36   39 1
  71   37   38 ar
  72   37   70 1
  73   38   71 1
  74   40   41 am
  75   40   72 1
  76   41   42 1
  77   41   43 2
  78   42   73 1
  79   42   74 1
  80   42   75 1

#	End of record

