#	Name: ASD01140005
#	Creating user name:	WinNT
#	Creation time:	15. 06. 2019 18:59

#	Modifying user name:	WinNT
#	Modification time:	15. 06. 2019 18:59

#	Program:	/corina/corina34_cracker 3.40 0067  02.08.2006

@<TRIPOS>MOLECULE
ASD01140005
  16   15    0    0    0
SMALL
NO_CHARGES


@<TRIPOS>ATOM
   1 C1            -0.0184     1.5028     0.0103 C.2     
   2 C2             0.0021    -0.0041     0.0020 C.3     
   3 C3             1.4513    -0.4944    -0.0145 C.3     
   4 C4             1.4720    -2.0242    -0.0229 C.3     
   5 O5             1.0197     2.1211     0.0037 O.2     
   6 O6            -1.1898     2.1580     0.0194 O.3     
   7 N7             2.8635    -2.4950    -0.0387 N.3     
   8 H8            -0.4983    -0.3791     0.8948 H       
   9 H9            -0.5153    -0.3696    -0.8850 H       
  10 H10            1.9516    -0.1193    -0.9073 H       
  11 H11            1.9686    -0.1289     0.8726 H       
  12 H12            0.9717    -2.3993     0.8699 H       
  13 H13            0.9547    -2.3897    -0.9099 H       
  14 H14           -1.1523     3.1243     0.0245 H       
  15 H15            3.3821    -2.1167     0.7398 H       
  16 H16            2.9041    -3.5031    -0.0445 H       
@<TRIPOS>BOND
   1    1    2 1
   2    1    5 2
   3    1    6 1
   4    2    3 1
   5    2    8 1
   6    2    9 1
   7    3    4 1
   8    3   10 1
   9    3   11 1
  10    4    7 1
  11    4   12 1
  12    4   13 1
  13    6   14 1
  14    7   15 1
  15    7   16 1

#	End of record

