#	Name: ASD01903328
#	Creating user name:	WinNT
#	Creation time:	15. 06. 2019 19:54

#	Modifying user name:	WinNT
#	Modification time:	15. 06. 2019 19:54

#	Program:	/corina/corina34_cracker 3.40 0067  02.08.2006

@<TRIPOS>MOLECULE
ASD01903328
  31   34    0    0    0
SMALL
NO_CHARGES


@<TRIPOS>ATOM
   1 N1            -0.0111     0.9658     0.0074 N.pl3   
   2 H2             0.0021    -0.0041     0.0020 H       
   3 C3             1.1798     1.6752    -0.0002 C.2     
   4 C4            -1.2332     1.6495     0.0169 C.2     
   5 S5             2.7895     0.9607    -0.0194 S.3     
   6 C6             3.5066     2.5630    -0.0108 C.2     
   7 C7             2.4982     3.4842    -0.0080 C.2     
   8 N8             1.2818     2.9689     0.0001 N.2     
   9 C9             4.9701     2.9168     0.0060 C.3     
  10 C10            5.2350     4.2366    -0.7200 C.3     
  11 C11            4.1897     5.2597    -0.3691 C.2     
  12 C12            2.8950     4.9247    -0.0431 C.2     
  13 N13            4.2756     6.5952    -0.3042 N.pl3   
  14 N14            3.0141     7.0999     0.0512 N.2     
  15 C15            2.1869     6.0914     0.2056 C.2     
  16 C16           -1.3984     3.0440     0.0252 C.2     
  17 C17           -2.7254     3.3046     0.0324 C.2     
  18 N18           -3.3793     2.1239     0.0288 N.pl3   
  19 N19           -2.4246     1.0990     0.0138 N.2     
  20 C20           -4.8334     1.9455     0.0341 C.3     
  21 H21            5.3033     3.0057     1.0400 H       
  22 H22            5.5344     2.1221    -0.4820 H       
  23 H23            6.2164     4.6135    -0.4321 H       
  24 H24            5.2199     4.0632    -1.7960 H       
  25 H25            5.0720     7.1226    -0.4730 H       
  26 H26            1.1437     6.1583     0.4769 H       
  27 H27           -0.6063     3.7781     0.0258 H       
  28 H28           -3.1810     4.2837     0.0401 H       
  29 H29           -5.1984     1.9069    -0.9922 H       
  30 H30           -5.0834     1.0151     0.5440 H       
  31 H31           -5.3001     2.7818     0.5546 H       
@<TRIPOS>BOND
   1    1    2 1
   2    1    3 1
   3    1    4 1
   4    3    5 1
   5    3    8 2
   6    4   16 1
   7    4   19 2
   8    5    6 1
   9    6    7 2
  10    6    9 1
  11    7    8 1
  12    7   12 1
  13    9   10 1
  14    9   21 1
  15    9   22 1
  16   10   11 1
  17   10   23 1
  18   10   24 1
  19   11   12 2
  20   11   13 1
  21   12   15 1
  22   13   14 1
  23   13   25 1
  24   14   15 2
  25   15   26 1
  26   16   17 2
  27   16   27 1
  28   17   18 1
  29   17   28 1
  30   18   19 1
  31   18   20 1
  32   20   29 1
  33   20   30 1
  34   20   31 1

#	End of record

