#	Name: ASD07930539
#	Creating user name:	WinNT
#	Creation time:	15. 06. 2019 21:12

#	Modifying user name:	WinNT
#	Modification time:	15. 06. 2019 21:12

#	Program:	/corina/corina34_cracker 3.40 0067  02.08.2006

@<TRIPOS>MOLECULE
ASD07930539
  44   46    0    0    0
SMALL
NO_CHARGES


@<TRIPOS>ATOM
   1 C1            -0.0341     1.4581     0.0422 C.3     
   2 N2             0.7954    -0.4135    -2.1303 N.2     
   3 N3            -0.8903    -1.7836    -1.2686 N.pl3   
   4 C4            -0.9149    -2.8271    -0.2383 C.3     
   5 C5            -1.2299    -2.1885     1.1214 C.3     
   6 S6             0.0063    -0.8913     1.4433 S.o2    
   7 N7            -0.0139    -0.0067     0.0314 N.am    
   8 C8            -0.0111    -0.7261    -1.1553 C.2     
   9 C9             0.4501    -3.5154    -0.1755 C.3     
  10 C10           -1.9764    -3.8423    -0.5755 C.ar    
  11 C11           -2.8068    -3.6378    -1.6601 C.ar    
  12 C12           -3.7852    -4.5732    -1.9717 C.ar    
  13 C13           -3.9269    -5.7133    -1.1920 C.ar    
  14 C14           -3.0936    -5.9149    -0.1066 C.ar    
  15 C15           -2.1144    -4.9816     0.1987 C.ar    
  16 O16           -0.4575     0.0117     2.4376 O.2     
  17 O17            1.3141    -1.4441     1.5002 O.2     
  18 F18           -1.3009    -5.1794     1.2590 F       
  19 N19           -4.6271    -4.3667    -3.0699 N.am    
  20 C20           -5.0470    -5.4162    -3.8038 C.2     
  21 O21           -4.6184    -6.5293    -3.5729 O.2     
  22 C22           -6.0334    -5.2120    -4.8948 C.ar    
  23 N23           -6.4350    -6.2548    -5.6060 N.ar    
  24 C24           -7.3124    -6.1085    -6.5842 C.ar    
  25 C25           -7.8125    -4.8422    -6.8606 C.ar    
  26 C26           -7.3690    -3.7735    -6.0949 C.ar    
  27 N27           -6.4942    -3.9921    -5.1291 N.ar    
  28 Br28          -7.8789    -7.6034    -7.5942 Br      
  29 F29           -3.2302    -7.0237     0.6531 F       
  30 H30            0.9884     1.8356     0.0391 H       
  31 H31           -0.5580     1.8208    -0.8421 H       
  32 H32           -0.5478     1.8077     0.9378 H       
  33 H33            1.4072     0.3329    -2.0333 H       
  34 H34           -1.4882    -1.8388    -2.0304 H       
  35 H35           -2.2269    -1.7484     1.0986 H       
  36 H36           -1.1799    -2.9460     1.9036 H       
  37 H37            1.2166    -2.7805     0.0704 H       
  38 H38            0.4311    -4.2908     0.5903 H       
  39 H39            0.6749    -3.9653    -1.1426 H       
  40 H40           -2.6957    -2.7504    -2.2655 H       
  41 H41           -4.6872    -6.4416    -1.4325 H       
  42 H42           -4.9086    -3.4682    -3.3029 H       
  43 H43           -8.5299    -4.6929    -7.6539 H       
  44 H44           -7.7374    -2.7759    -6.2832 H       
@<TRIPOS>BOND
   1    1    7 1
   2    1   30 1
   3    1   31 1
   4    1   32 1
   5    2    8 2
   6    2   33 1
   7    3    4 1
   8    3    8 1
   9    3   34 1
  10    4    5 1
  11    4    9 1
  12    4   10 1
  13    5    6 1
  14    5   35 1
  15    5   36 1
  16    6    7 am
  17    6   16 2
  18    6   17 2
  19    7    8 1
  20    9   37 1
  21    9   38 1
  22    9   39 1
  23   10   11 ar
  24   10   15 ar
  25   11   12 ar
  26   11   40 1
  27   12   13 ar
  28   12   19 1
  29   13   14 ar
  30   13   41 1
  31   14   15 ar
  32   14   29 1
  33   15   18 1
  34   19   20 am
  35   19   42 1
  36   20   21 2
  37   20   22 1
  38   22   23 ar
  39   22   27 ar
  40   23   24 ar
  41   24   25 ar
  42   24   28 1
  43   25   26 ar
  44   25   43 1
  45   26   27 ar
  46   26   44 1

#	End of record

