#	Name: ASD01915342
#	Creating user name:	WinNT
#	Creation time:	15. 06. 2019 20:05

#	Modifying user name:	WinNT
#	Modification time:	15. 06. 2019 20:05

#	Program:	/corina/corina34_cracker 3.40 0067  02.08.2006

@<TRIPOS>MOLECULE
ASD01915342
  35   37    0    0    0
SMALL
NO_CHARGES


@<TRIPOS>ATOM
   1 C1             0.0013     1.3284    -0.0226 C.2     
   2 N2             0.0153    -0.0230    -0.0298 N.pl3   
   3 C3            -1.2139    -0.6332    -0.0150 C.2     
   4 C4            -2.2988     0.1247     0.0049 C.2     
   5 S5            -1.7049     1.7954     0.0109 S.3     
   6 N6             1.2398     1.7705    -0.0385 N.2     
   7 C7             2.0765     0.7371    -0.0561 C.2     
   8 N8             1.3889    -0.3734    -0.0522 N.2     
   9 C9            -3.7340    -0.3347     0.0235 C.3     
  10 C10           -1.3262    -2.1360    -0.0216 C.3     
  11 C11           -4.3863     0.0837     1.3428 C.3     
  12 O12           -4.4506     0.2714    -1.0843 O.3     
  13 C13           -5.4758    -0.4289    -1.6055 C.2     
  14 N14           -6.1826     0.0768    -2.6356 N.am    
  15 O15           -5.7637    -1.5167    -1.1470 O.2     
  16 C16           -7.1737    -0.6966    -3.2507 C.ar    
  17 C17           -8.3250    -0.0924    -3.7384 C.ar    
  18 C18           -9.3010    -0.8583    -4.3453 C.ar    
  19 C19           -9.1327    -2.2253    -4.4675 C.ar    
  20 C20           -7.9875    -2.8300    -3.9829 C.ar    
  21 C21           -7.0054    -2.0689    -3.3797 C.ar    
  22 H22            3.1543     0.8052    -0.0717 H       
  23 H23           -3.7693    -1.4200    -0.0712 H       
  24 H24           -0.3285    -2.5748    -0.0384 H       
  25 H25           -1.8528    -2.4650     0.8743 H       
  26 H26           -1.8784    -2.4552    -0.9055 H       
  27 H27           -4.3510     1.1690     1.4375 H       
  28 H28           -5.4243    -0.2486     1.3562 H       
  29 H29           -3.8483    -0.3713     2.1744 H       
  30 H30           -6.0044     0.9767    -2.9508 H       
  31 H31           -8.4572     0.9752    -3.6429 H       
  32 H32          -10.1968    -0.3890    -4.7245 H       
  33 H33           -9.8976    -2.8221    -4.9422 H       
  34 H34           -7.8589    -3.8979    -4.0799 H       
  35 H35           -6.1110    -2.5417    -3.0017 H       
@<TRIPOS>BOND
   1    1    2 1
   2    1    6 2
   3    1    5 1
   4    2    3 1
   5    2    8 1
   6    3    4 2
   7    3   10 1
   8    4    5 1
   9    4    9 1
  10    6    7 1
  11    7    8 2
  12    7   22 1
  13    9   11 1
  14    9   12 1
  15    9   23 1
  16   10   24 1
  17   10   25 1
  18   10   26 1
  19   11   27 1
  20   11   28 1
  21   11   29 1
  22   12   13 1
  23   13   14 am
  24   13   15 2
  25   14   16 1
  26   14   30 1
  27   16   17 ar
  28   16   21 ar
  29   17   18 ar
  30   17   31 1
  31   18   19 ar
  32   18   32 1
  33   19   20 ar
  34   19   33 1
  35   20   21 ar
  36   20   34 1
  37   21   35 1

#	End of record

