#	Name: ASD01230645
#	Creating user name:	WinNT
#	Creation time:	15. 06. 2019 19:14

#	Modifying user name:	WinNT
#	Modification time:	15. 06. 2019 19:14

#	Program:	/corina/corina34_cracker 3.40 0067  02.08.2006

@<TRIPOS>MOLECULE
ASD01230645
  29   31    0    0    0
SMALL
NO_CHARGES


@<TRIPOS>ATOM
   1 N1            -0.0169     1.3967     0.0097 N.pl3   
   2 N2             0.0021    -0.0041     0.0020 N.2     
   3 C3             1.2506    -0.3963    -0.0120 C.2     
   4 C4             2.0668     0.7402    -0.0137 C.2     
   5 C5             1.2641     1.8296    -0.0002 C.2     
   6 C6             1.7272    -1.8259    -0.0235 C.3     
   7 F7             0.6272    -2.6833    -0.1324 F       
   8 F8             2.5823    -2.0237    -1.1129 F       
   9 F9             2.4146    -2.0978     1.1642 F       
  10 C10            1.7165     3.2671     0.0028 C.3     
  11 C11            2.9963     3.6033     0.7709 C.3     
  12 C12            2.9995     3.6054    -0.7591 C.3     
  13 C13           -1.1615     2.2063     0.0198 C.ar    
  14 C14           -2.3012     1.8078    -0.6657 C.ar    
  15 C15           -3.4274     2.6072    -0.6542 C.ar    
  16 C16           -3.4204     3.8043     0.0395 C.ar    
  17 C17           -2.2859     4.2038     0.7233 C.ar    
  18 C18           -1.1590     3.4053     0.7198 C.ar    
  19 Br19          -4.9640     4.8967     0.0524 Br      
  20 H20            3.1467     0.7469    -0.0237 H       
  21 H21            0.9196     4.0107     0.0025 H       
  22 H22            3.0416     4.5683     1.2756 H       
  23 H23            3.5111     2.7847     1.2740 H       
  24 H24            3.5162     2.7883    -1.2625 H       
  25 H25            3.0468     4.5719    -1.2610 H       
  26 H26           -2.3070     0.8736    -1.2076 H       
  27 H27           -4.3141     2.2977    -1.1876 H       
  28 H28           -2.2829     5.1388     1.2638 H       
  29 H29           -0.2753     3.7152     1.2577 H       
@<TRIPOS>BOND
   1    1    2 1
   2    1    5 1
   3    1   13 1
   4    2    3 2
   5    3    4 1
   6    3    6 1
   7    4    5 2
   8    4   20 1
   9    5   10 1
  10    6    7 1
  11    6    8 1
  12    6    9 1
  13   10   11 1
  14   10   12 1
  15   10   21 1
  16   11   12 1
  17   11   22 1
  18   11   23 1
  19   12   24 1
  20   12   25 1
  21   13   14 ar
  22   13   18 ar
  23   14   15 ar
  24   14   26 1
  25   15   16 ar
  26   15   27 1
  27   16   17 ar
  28   16   19 1
  29   17   18 ar
  30   17   28 1
  31   18   29 1

#	End of record

