#	Name: ASD08178446
#	Creating user name:	WinNT
#	Creation time:	15. 06. 2019 21:18

#	Modifying user name:	WinNT
#	Modification time:	15. 06. 2019 21:18

#	Program:	/corina/corina34_cracker 3.40 0067  02.08.2006

@<TRIPOS>MOLECULE
ASD08178446
  81   84    0    0    0
SMALL
NO_CHARGES


@<TRIPOS>ATOM
   1 C1            -0.0173     1.3839    -0.0008 C.ar    
   2 C2             0.0019    -0.0033    -0.0017 C.ar    
   3 C3            -1.2128    -0.6719     0.0099 C.ar    
   4 C4            -2.3780     0.0923     0.0218 C.ar    
   5 N5            -2.2958     1.4144     0.0217 N.ar    
   6 N6            -1.1681     2.0273     0.0164 N.ar    
   7 C7             1.2772     2.1554    -0.0131 C.3     
   8 C8             1.2801     3.1278    -1.1943 C.3     
   9 C9             2.5944     3.9111    -1.2069 C.3     
  10 C10            2.5972     4.8836    -2.3880 C.3     
  11 C11            3.8917     5.6551    -2.4004 C.2     
  12 N12            4.9805     5.3107    -3.0117 N.2     
  13 N13            5.9631     6.0956    -2.9005 N.2     
  14 C14            5.7991     7.1702    -2.1897 C.2     
  15 S15            4.1940     7.1931    -1.5913 S.3     
  16 N16            6.7647     8.1438    -1.9575 N.am    
  17 C17            7.9951     8.0135    -2.4918 C.2     
  18 O18            8.2603     7.0471    -3.1751 O.2     
  19 C19            9.0414     9.0685    -2.2403 C.3     
  20 C20           10.3185     8.6872    -2.9438 C.ar    
  21 C21           10.5429     9.1035    -4.2427 C.ar    
  22 C22           11.7142     8.7537    -4.8880 C.ar    
  23 C23           12.6614     7.9880    -4.2342 C.ar    
  24 C24           12.4375     7.5725    -2.9349 C.ar    
  25 C25           11.2680     7.9260    -2.2882 C.ar    
  26 N26           -3.6248    -0.5319     0.0332 N.am    
  27 C27           -4.7468     0.2058     0.1496 C.2     
  28 O28           -4.6695     1.4013     0.3382 O.2     
  29 C29           -6.0972    -0.4549     0.0453 C.3     
  30 C30           -7.1779     0.5826     0.2089 C.ar    
  31 C31           -7.6732     1.2447    -0.8990 C.ar    
  32 C32           -8.6646     2.1975    -0.7521 C.ar    
  33 C33           -9.1625     2.4900     0.5026 C.ar    
  34 C34           -8.6674     1.8265     1.6162 C.ar    
  35 C35           -7.6770     0.8671     1.4655 C.ar    
  36 O36           -9.1554     2.1128     2.8518 O.3     
  37 C37          -10.1778     3.1081     2.9310 C.3     
  38 C38          -10.5918     3.2897     4.3686 C.2     
  39 O39          -10.0634     2.6316     5.2396 O.2     
  40 N40          -11.5492     4.1834     4.6864 N.am    
  41 C41          -11.9517     4.3599     6.0839 C.3     
  42 C42          -13.0463     5.4255     6.1687 C.3     
  43 C43          -14.2998     4.9277     5.4462 C.3     
  44 C44          -13.3787     5.6995     7.6368 C.3     
  45 H45            0.9354    -0.5464    -0.0115 H       
  46 H46           -1.2545    -1.7511     0.0094 H       
  47 H47            1.3762     2.7140     0.9176 H       
  48 H48            2.1125     1.4620    -0.1113 H       
  49 H49            1.1812     2.5693    -2.1250 H       
  50 H50            0.4448     3.8212    -1.0961 H       
  51 H51            2.6933     4.4697    -0.2761 H       
  52 H52            3.4296     3.2177    -1.3050 H       
  53 H53            2.4983     4.3250    -3.3188 H       
  54 H54            1.7620     5.5769    -2.2899 H       
  55 H55            6.5526     8.9167    -1.4111 H       
  56 H56            8.6894    10.0273    -2.6207 H       
  57 H57            9.2266     9.1484    -1.1691 H       
  58 H58            9.8028     9.7016    -4.7535 H       
  59 H59           11.8892     9.0783    -5.9031 H       
  60 H60           13.5763     7.7142    -4.7386 H       
  61 H61           13.1774     6.9741    -2.4242 H       
  62 H62           11.0930     7.6014    -1.2731 H       
  63 H63           -3.6847    -1.4971    -0.0426 H       
  64 H64           -6.1947    -0.9302    -0.9307 H       
  65 H65           -6.1948    -1.2077     0.8275 H       
  66 H66           -7.2849     1.0176    -1.8809 H       
  67 H67           -9.0496     2.7136    -1.6191 H       
  68 H68           -9.9363     3.2347     0.6169 H       
  69 H69           -7.2900     0.3493     2.3307 H       
  70 H70           -9.7971     4.0519     2.5405 H       
  71 H71          -11.0388     2.7921     2.3420 H       
  72 H72          -11.9719     4.7097     3.9897 H       
  73 H73          -12.3324     3.4161     6.4743 H       
  74 H74          -11.0907     4.6759     6.6728 H       
  75 H75          -12.6963     6.3442     5.6978 H       
  76 H76          -15.0796     5.6869     5.5066 H       
  77 H77          -14.0630     4.7325     4.4003 H       
  78 H78          -14.6498     4.0091     5.9171 H       
  79 H79          -12.4858     6.0542     8.1514 H       
  80 H80          -14.1586     6.4587     7.6972 H       
  81 H81          -13.7287     4.7809     8.1076 H       
@<TRIPOS>BOND
   1    1    2 ar
   2    1    7 1
   3    1    6 ar
   4    2    3 ar
   5    2   45 1
   6    3    4 ar
   7    3   46 1
   8    4    5 ar
   9    4   26 1
  10    5    6 ar
  11    7    8 1
  12    7   47 1
  13    7   48 1
  14    8    9 1
  15    8   49 1
  16    8   50 1
  17    9   10 1
  18    9   51 1
  19    9   52 1
  20   10   11 1
  21   10   53 1
  22   10   54 1
  23   11   12 2
  24   11   15 1
  25   12   13 1
  26   13   14 2
  27   14   15 1
  28   14   16 1
  29   16   17 am
  30   16   55 1
  31   17   18 2
  32   17   19 1
  33   19   20 1
  34   19   56 1
  35   19   57 1
  36   20   21 ar
  37   20   25 ar
  38   21   22 ar
  39   21   58 1
  40   22   23 ar
  41   22   59 1
  42   23   24 ar
  43   23   60 1
  44   24   25 ar
  45   24   61 1
  46   25   62 1
  47   26   27 am
  48   26   63 1
  49   27   28 2
  50   27   29 1
  51   29   30 1
  52   29   64 1
  53   29   65 1
  54   30   31 ar
  55   30   35 ar
  56   31   32 ar
  57   31   66 1
  58   32   33 ar
  59   32   67 1
  60   33   34 ar
  61   33   68 1
  62   34   35 ar
  63   34   36 1
  64   35   69 1
  65   36   37 1
  66   37   38 1
  67   37   70 1
  68   37   71 1
  69   38   39 2
  70   38   40 am
  71   40   41 1
  72   40   72 1
  73   41   42 1
  74   41   73 1
  75   41   74 1
  76   42   43 1
  77   42   44 1
  78   42   75 1
  79   43   76 1
  80   43   77 1
  81   43   78 1
  82   44   79 1
  83   44   80 1
  84   44   81 1

#	End of record

