#	Name: ASD04800003
#	Creating user name:	WinNT
#	Creation time:	15. 06. 2019 20:52

#	Modifying user name:	WinNT
#	Modification time:	15. 06. 2019 20:52

#	Program:	/corina/corina34_cracker 3.40 0067  02.08.2006

@<TRIPOS>MOLECULE
ASD04800003
  47   49    0    0    0
SMALL
NO_CHARGES


@<TRIPOS>ATOM
   1 C1            -0.0187     1.5261     0.0104 C.3     
   2 C2             0.0021    -0.0041     0.0020 C.3     
   3 C3             0.7375    -0.4928    -1.2489 C.3     
   4 C4             2.1530     0.0910    -1.2600 C.3     
   5 C5             2.0699     1.6185    -1.2150 C.3     
   6 N6             1.3585     2.0357     0.0000 N.3     
   7 C7             3.4826     2.2058    -1.2057 C.3     
   8 C8             3.4038     3.7014    -1.0378 C.ar    
   9 C9             3.3099     4.2498     0.2284 C.ar    
  10 C10            3.2367     5.6218     0.3898 C.ar    
  11 C11            3.2575     6.4510    -0.7131 C.ar    
  12 C12            3.3523     5.9038    -1.9913 C.ar    
  13 C13            3.4310     4.5217    -2.1477 C.ar    
  14 O14            4.2252     1.6433    -0.1221 O.3     
  15 C15            3.3746     6.7903    -3.1810 C.ar    
  16 C16            3.3008     8.1729    -3.0243 C.ar    
  17 C17            3.4752     6.2435    -4.4587 C.ar    
  18 C18            3.4955     7.0728    -5.5618 C.ar    
  19 C19            3.4166     8.4443    -5.4007 C.ar    
  20 C20            3.3219     8.9928    -4.1344 C.ar    
  21 C21            3.1337     6.2120     1.7726 C.3     
  22 F22            4.4174     6.4563     2.2722 F       
  23 F23            2.4192     7.4134     1.7148 F       
  24 F24            2.4687     5.3140     2.6145 F       
  25 C25            3.4397     9.3447    -6.6090 C.3     
  26 F26            2.1317     9.5564    -7.0578 F       
  27 F27            4.0192    10.5709    -6.2658 F       
  28 F28            4.1896     8.7425    -7.6249 F       
  29 H29           -0.5461     1.8871    -0.8725 H       
  30 H30           -0.5291     1.8775     0.9071 H       
  31 H31            0.5174    -0.3659     0.8918 H       
  32 H32           -1.0203    -0.3818    -0.0060 H       
  33 H33            0.7925    -1.5813    -1.2371 H       
  34 H34            0.2008    -0.1639    -2.1388 H       
  35 H35            2.7021    -0.2693    -0.3901 H       
  36 H36            2.6673    -0.2188    -2.1698 H       
  37 H37            1.5326     1.9790    -2.0923 H       
  38 H38            1.3734     3.0395     0.1011 H       
  39 H39            3.9797     1.9716    -2.1471 H       
  40 H40            3.2934     3.6045     1.0943 H       
  41 H41            3.1999     7.5219    -0.5860 H       
  42 H42            3.5050     4.0924    -3.1360 H       
  43 H43            3.8400     1.8128     0.7485 H       
  44 H44            3.2268     8.6021    -2.0360 H       
  45 H45            3.5376     5.1728    -4.5855 H       
  46 H46            3.5734     6.6500    -6.5525 H       
  47 H47            3.2605    10.0643    -4.0143 H       
@<TRIPOS>BOND
   1    1    2 1
   2    1    6 1
   3    1   29 1
   4    1   30 1
   5    2    3 1
   6    2   31 1
   7    2   32 1
   8    3    4 1
   9    3   33 1
  10    3   34 1
  11    4    5 1
  12    4   35 1
  13    4   36 1
  14    5    6 1
  15    5    7 1
  16    5   37 1
  17    6   38 1
  18    7    8 1
  19    7   14 1
  20    7   39 1
  21    8    9 ar
  22    8   13 ar
  23    9   10 ar
  24    9   40 1
  25   10   11 ar
  26   10   21 1
  27   11   12 ar
  28   11   41 1
  29   12   13 ar
  30   12   15 1
  31   13   42 1
  32   14   43 1
  33   15   16 ar
  34   15   17 ar
  35   16   20 ar
  36   16   44 1
  37   17   18 ar
  38   17   45 1
  39   18   19 ar
  40   18   46 1
  41   19   20 ar
  42   19   25 1
  43   20   47 1
  44   21   22 1
  45   21   23 1
  46   21   24 1
  47   25   26 1
  48   25   27 1
  49   25   28 1

#	End of record

