#	Name: ASD01912830
#	Creating user name:	WinNT
#	Creation time:	15. 06. 2019 20:00

#	Modifying user name:	WinNT
#	Modification time:	15. 06. 2019 20:00

#	Program:	/corina/corina34_cracker 3.40 0067  02.08.2006

@<TRIPOS>MOLECULE
ASD01912830
  39   42    0    0    0
SMALL
NO_CHARGES


@<TRIPOS>ATOM
   1 C1            -0.0265     1.3432     0.2542 C.2     
   2 N2             0.0029    -0.0020    -0.0159 N.pl3   
   3 C3            -1.1917    -0.6641    -0.2594 C.2     
   4 C4            -2.3523    -0.0220    -0.2358 C.2     
   5 N5            -2.4350     1.3319     0.0307 N.am    
   6 C6            -1.3120     2.0404     0.2839 C.2     
   7 C7             2.0435     0.5798     0.2880 C.2     
   8 N8             1.2234    -0.4067     0.0132 N.2     
   9 O9            -1.3682     3.2339     0.5205 O.2     
  10 C10           -3.6823     1.9679     0.0447 C.ar    
  11 C11            3.5427     0.4794     0.4037 C.3     
  12 O12            4.1359     0.7141    -0.8750 O.3     
  13 C13            5.4920     0.6595    -0.9453 C.ar    
  14 C14            6.1343     0.8775    -2.1555 C.ar    
  15 C15            7.5129     0.8214    -2.2244 C.ar    
  16 C16            8.2525     0.5483    -1.0886 C.ar    
  17 C17            7.6147     0.3302     0.1187 C.ar    
  18 C18            6.2366     0.3913     0.1941 C.ar    
  19 C19           -3.9971     2.9030    -0.9327 C.ar    
  20 C20           -4.6087     1.6602     1.0326 C.ar    
  21 C21           -5.8385     2.2884     1.0443 C.ar    
  22 C22           -6.1485     3.2241     0.0716 C.ar    
  23 C23           -5.2280     3.5288    -0.9173 C.ar    
  24 F24           -7.3523     3.8371     0.0845 F       
  25 C25            1.2841     1.7383     0.4537 C.2     
  26 Cl26           1.8598     3.3322     0.8299 Cl      
  27 H27           -1.1764    -1.7227    -0.4727 H       
  28 H28           -3.2600    -0.5737    -0.4311 H       
  29 H29            3.9030     1.2239     1.1136 H       
  30 H30            3.8142    -0.5168     0.7529 H       
  31 H31            5.5570     1.0905    -3.0431 H       
  32 H32            8.0134     0.9907    -3.1664 H       
  33 H33            9.3301     0.5048    -1.1445 H       
  34 H34            8.1945     0.1163     1.0043 H       
  35 H35            5.7389     0.2209     1.1373 H       
  36 H36           -3.2795     3.1410    -1.7040 H       
  37 H37           -4.3676     0.9301     1.7910 H       
  38 H38           -6.5592     2.0494     1.8124 H       
  39 H39           -5.4717     4.2588    -1.6749 H       
@<TRIPOS>BOND
   1    1    2 1
   2    1   25 2
   3    1    6 1
   4    2    3 1
   5    2    8 1
   6    3    4 2
   7    3   27 1
   8    4    5 1
   9    4   28 1
  10    5    6 am
  11    5   10 1
  12    6    9 2
  13    7    8 2
  14    7   11 1
  15    7   25 1
  16   10   19 ar
  17   10   20 ar
  18   11   12 1
  19   11   29 1
  20   11   30 1
  21   12   13 1
  22   13   14 ar
  23   13   18 ar
  24   14   15 ar
  25   14   31 1
  26   15   16 ar
  27   15   32 1
  28   16   17 ar
  29   16   33 1
  30   17   18 ar
  31   17   34 1
  32   18   35 1
  33   19   23 ar
  34   19   36 1
  35   20   21 ar
  36   20   37 1
  37   21   22 ar
  38   21   38 1
  39   22   23 ar
  40   22   24 1
  41   23   39 1
  42   25   26 1

#	End of record

