#	Name: ASD01813302
#	Creating user name:	WinNT
#	Creation time:	15. 06. 2019 19:30

#	Modifying user name:	WinNT
#	Modification time:	15. 06. 2019 19:30

#	Program:	/corina/corina34_cracker 3.40 0067  02.08.2006

@<TRIPOS>MOLECULE
ASD01813302
  45   48    0    0    0
SMALL
NO_CHARGES


@<TRIPOS>ATOM
   1 C1            -0.0189     1.3607    -0.0576 C.2     
   2 N2             0.0021    -0.0041     0.0020 N.pl3   
   3 C3            -1.1023    -0.7548     0.0899 C.2     
   4 C4            -2.3466    -0.1569     0.1246 C.2     
   5 C5            -2.4041     1.3090     0.0589 C.2     
   6 O6            -3.4753     1.8939     0.0883 O.2     
   7 C7             1.3009    -0.6808    -0.0325 C.3     
   8 C8             1.8373    -0.8104     1.3698 C.ar    
   9 C9            -1.2722     3.5328    -0.1192 C.3     
  10 C10            0.0729     4.1743     0.2143 C.3     
  11 C11            1.1515     3.4910    -0.6354 C.3     
  12 C12            1.3171     2.0582    -0.1356 C.3     
  13 C13           -1.1826     2.0321    -0.0393 C.2     
  14 N14            2.5108     0.1908     1.9023 N.ar    
  15 C15            3.0003     0.1278     3.1238 C.ar    
  16 C16            2.8200    -1.0138     3.9019 C.ar    
  17 C17            2.1105    -2.0922     3.3658 C.ar    
  18 C18            1.6108    -1.9752     2.0804 C.ar    
  19 C19            3.3727    -1.0838     5.2771 C.2     
  20 O20           -2.2565     3.9951     0.8079 O.3     
  21 C21            3.2258    -2.1633     6.0670 C.2     
  22 S22            4.0121    -1.8724     7.6128 S.3     
  23 C23            4.5105    -0.2671     7.0974 C.2     
  24 C24            4.0918    -0.0393     5.8551 C.2     
  25 C25           -3.5742    -0.9621     0.2238 C.2     
  26 O26           -3.5033    -2.1743     0.2765 O.2     
  27 O27           -4.7773    -0.3553     0.2560 O.3     
  28 H28           -1.0202    -1.8308     0.1333 H       
  29 H29            1.1825    -1.6724    -0.4693 H       
  30 H30            1.9978    -0.0990    -0.6358 H       
  31 H31           -1.5670     3.8214    -1.1281 H       
  32 H32            0.0407     5.2387    -0.0183 H       
  33 H33            0.2949     4.0348     1.2724 H       
  34 H34            0.8447     3.4822    -1.6813 H       
  35 H35            2.0948     4.0274    -0.5330 H       
  36 H36            1.7719     2.0741     0.8548 H       
  37 H37            1.9672     1.5126    -0.8195 H       
  38 H38            3.5465     0.9685     3.5254 H       
  39 H39            1.9527    -2.9922     3.9415 H       
  40 H40            1.0574    -2.7881     1.6339 H       
  41 H41           -2.3850     4.9535     0.7997 H       
  42 H42            2.7045    -3.0689     5.7938 H       
  43 H43            5.0768     0.4290     7.6983 H       
  44 H44            4.2874     0.8879     5.3370 H       
  45 H45           -5.5552    -0.9260     0.3216 H       
@<TRIPOS>BOND
   1    1    2 1
   2    1   12 1
   3    1   13 2
   4    2    3 1
   5    2    7 1
   6    3    4 2
   7    3   28 1
   8    4    5 1
   9    4   25 1
  10    5    6 2
  11    5   13 1
  12    7    8 1
  13    7   29 1
  14    7   30 1
  15    8   14 ar
  16    8   18 ar
  17    9   10 1
  18    9   13 1
  19    9   20 1
  20    9   31 1
  21   10   11 1
  22   10   32 1
  23   10   33 1
  24   11   12 1
  25   11   34 1
  26   11   35 1
  27   12   36 1
  28   12   37 1
  29   14   15 ar
  30   15   16 ar
  31   15   38 1
  32   16   17 ar
  33   16   19 1
  34   17   18 ar
  35   17   39 1
  36   18   40 1
  37   19   21 2
  38   19   24 1
  39   20   41 1
  40   21   22 1
  41   21   42 1
  42   22   23 1
  43   23   24 2
  44   23   43 1
  45   24   44 1
  46   25   26 2
  47   25   27 1
  48   27   45 1

#	End of record

