#	Name: ASD09530049
#	Creating user name:	WinNT
#	Creation time:	15. 06. 2019 21:22

#	Modifying user name:	WinNT
#	Modification time:	15. 06. 2019 21:22

#	Program:	/corina/corina34_cracker 3.40 0067  02.08.2006

@<TRIPOS>MOLECULE
ASD09530049
  55   58    0    0    0
SMALL
NO_CHARGES


@<TRIPOS>ATOM
   1 C1            -0.0068     1.3765     0.2040 C.ar    
   2 C2             0.0021    -0.0041     0.0020 C.ar    
   3 C3             1.2130    -0.6648    -0.2075 C.ar    
   4 C4             2.3932     0.0498    -0.2139 C.ar    
   5 C5             2.3777     1.4185    -0.0126 C.ar    
   6 C6             1.1802     2.0796     0.1953 C.ar    
   7 C7             3.6707     2.1926    -0.0198 C.3     
   8 C8             3.9715     2.6551    -1.4222 C.2     
   9 N9             5.0858     3.3712    -1.6712 N.am    
  10 O10            3.2108     2.3829    -2.3267 O.2     
  11 C11            5.3782     3.8208    -3.0345 C.3     
  12 C12            6.2559     5.0447    -2.9824 C.ar    
  13 N13            7.0228     5.2509    -1.9296 N.ar    
  14 C14            7.8073     6.3062    -1.8382 C.ar    
  15 C15            7.8522     7.2455    -2.8584 C.ar    
  16 C16            7.0561     7.0591    -3.9836 C.ar    
  17 C17            6.2505     5.9330    -4.0412 C.ar    
  18 O18            8.6623     8.3323    -2.7595 O.3     
  19 C19            9.4476     8.4502    -1.5714 C.3     
  20 C20           10.2889     9.7262    -1.6407 C.3     
  21 C21            6.1008     2.7069    -3.7949 C.3     
  22 F22            9.4445    10.8359    -1.7534 F       
  23 F23           11.0578     9.8416    -0.4776 F       
  24 F24           11.1337     9.6680    -2.7543 F       
  25 C25           -1.2677    -0.7646     0.0105 C.ar    
  26 N26           -2.3371    -0.3143    -0.6340 N.ar    
  27 C27           -3.4772    -0.9851    -0.6335 C.ar    
  28 N28           -3.6347    -2.1266    -0.0062 N.ar    
  29 C29           -2.6196    -2.6728     0.6766 C.ar    
  30 C30           -1.3741    -1.9965     0.7021 C.ar    
  31 C31           -2.7523    -3.8913     1.3579 C.ar    
  32 C32           -1.6867    -4.4018     2.0366 C.ar    
  33 C33           -0.4656    -3.7323     2.0655 C.ar    
  34 C34           -0.2998    -2.5489     1.4087 C.ar    
  35 H35           -0.9413     1.8943     0.3623 H       
  36 H36            1.2265    -1.7333    -0.3641 H       
  37 H37            3.3312    -0.4605    -0.3760 H       
  38 H38            1.1747     3.1482     0.3515 H       
  39 H39            3.5796     3.0581     0.6365 H       
  40 H40            4.4793     1.5526     0.3330 H       
  41 H41            5.6942     3.5889    -0.9477 H       
  42 H42            4.4461     4.0635    -3.5448 H       
  43 H43            8.4211     6.4413    -0.9599 H       
  44 H44            7.0687     7.7724    -4.7945 H       
  45 H45            5.6193     5.7561    -4.8996 H       
  46 H46            8.7894     8.4955    -0.7038 H       
  47 H47           10.1055     7.5856    -1.4836 H       
  48 H48            5.4660     1.8217    -3.8325 H       
  49 H49            6.3184     3.0414    -4.8092 H       
  50 H50            7.0329     2.4642    -3.2846 H       
  51 H51           -4.3170    -0.5740    -1.1740 H       
  52 H52           -3.6931    -4.4215     1.3451 H       
  53 H53           -1.7906    -5.3403     2.5608 H       
  54 H54            0.3628    -4.1590     2.6113 H       
  55 H55            0.6517    -2.0389     1.4383 H       
@<TRIPOS>BOND
   1    1    2 ar
   2    1    6 ar
   3    1   35 1
   4    2    3 ar
   5    2   25 1
   6    3    4 ar
   7    3   36 1
   8    4    5 ar
   9    4   37 1
  10    5    6 ar
  11    5    7 1
  12    6   38 1
  13    7    8 1
  14    7   39 1
  15    7   40 1
  16    8    9 am
  17    8   10 2
  18    9   11 1
  19    9   41 1
  20   11   12 1
  21   11   21 1
  22   11   42 1
  23   12   13 ar
  24   12   17 ar
  25   13   14 ar
  26   14   15 ar
  27   14   43 1
  28   15   16 ar
  29   15   18 1
  30   16   17 ar
  31   16   44 1
  32   17   45 1
  33   18   19 1
  34   19   20 1
  35   19   46 1
  36   19   47 1
  37   20   22 1
  38   20   23 1
  39   20   24 1
  40   21   48 1
  41   21   49 1
  42   21   50 1
  43   25   26 ar
  44   25   30 ar
  45   26   27 ar
  46   27   28 ar
  47   27   51 1
  48   28   29 ar
  49   29   30 ar
  50   29   31 ar
  51   30   34 ar
  52   31   32 ar
  53   31   52 1
  54   32   33 ar
  55   32   53 1
  56   33   34 ar
  57   33   54 1
  58   34   55 1

#	End of record

