#	Name: ASD03331723
#	Creating user name:	WinNT
#	Creation time:	15. 06. 2019 20:39

#	Modifying user name:	WinNT
#	Modification time:	15. 06. 2019 20:39

#	Program:	/corina/corina34_cracker 3.40 0067  02.08.2006

@<TRIPOS>MOLECULE
ASD03331723
  44   47    0    0    0
SMALL
NO_CHARGES


@<TRIPOS>ATOM
   1 C1            -0.0445     1.4607    -0.7565 C.ar    
   2 C2            -0.0381     0.1297    -1.0649 C.ar    
   3 C3             1.1582    -0.5691    -1.1482 C.ar    
   4 C4             2.3606     0.0654    -0.9218 C.ar    
   5 C5             2.3792     1.4197    -0.6064 C.ar    
   6 C6             1.1630     2.1246    -0.5230 C.ar    
   7 N7             3.3924     2.3120    -0.3331 N.pl3   
   8 C8             2.8620     3.5560    -0.0797 C.2     
   9 C9             1.5107     3.5027    -0.1803 C.2     
  10 C10            0.5504     4.6464     0.0218 C.3     
  11 C11            0.7133     5.6427    -1.0971 C.ar    
  12 C12           -0.8838     4.1135     0.0254 C.3     
  13 N13           -1.0947     3.2872     1.2166 N.pl3   
  14 O14           -2.1090     3.4197     1.8778 O.2     
  15 O15           -0.2558     2.4678     1.5457 O.2     
  16 C16            0.9745     6.9692    -0.8088 C.ar    
  17 C17            1.1239     7.8832    -1.8350 C.ar    
  18 C18            1.0125     7.4706    -3.1497 C.ar    
  19 C19            0.7522     6.1439    -3.4380 C.ar    
  20 C20            0.6072     5.2291    -2.4118 C.ar    
  21 C21            3.6454     4.7656     0.2521 C.ar    
  22 C22            3.2436     5.5948     1.3002 C.ar    
  23 C23            4.7926     5.0793    -0.4782 C.ar    
  24 C24            5.5192     6.2090    -0.1642 C.ar    
  25 C25            5.1125     7.0310     0.8733 C.ar    
  26 C26            3.9783     6.7217     1.6050 C.ar    
  27 Cl27           6.0324     8.4507     1.2630 Cl      
  28 H28           -0.9790     1.9989    -0.6978 H       
  29 H29           -0.9715    -0.3829    -1.2450 H       
  30 H30            1.1468    -1.6210    -1.3926 H       
  31 H31            3.2858    -0.4878    -0.9888 H       
  32 H32            4.3379     2.0957    -0.3208 H       
  33 H33            0.7598     5.1326     0.9746 H       
  34 H34           -1.5822     4.9503     0.0353 H       
  35 H35           -1.0501     3.5120    -0.8682 H       
  36 H36            1.0615     7.2916     0.2183 H       
  37 H37            1.3272     8.9197    -1.6098 H       
  38 H38            1.1285     8.1847    -3.9515 H       
  39 H39            0.6649     5.8216    -4.4651 H       
  40 H40            0.4038     4.1927    -2.6371 H       
  41 H41            2.3590     5.3547     1.8714 H       
  42 H42            5.1110     4.4387    -1.2873 H       
  43 H43            6.4074     6.4526    -0.7283 H       
  44 H44            3.6683     7.3641     2.4160 H       
@<TRIPOS>BOND
   1    1    2 ar
   2    1    6 ar
   3    1   28 1
   4    2    3 ar
   5    2   29 1
   6    3    4 ar
   7    3   30 1
   8    4    5 ar
   9    4   31 1
  10    5    7 1
  11    5    6 ar
  12    6    9 1
  13    7    8 1
  14    7   32 1
  15    8    9 2
  16    8   21 1
  17    9   10 1
  18   10   12 1
  19   10   11 1
  20   10   33 1
  21   11   16 ar
  22   11   20 ar
  23   12   13 1
  24   12   34 1
  25   12   35 1
  26   13   14 2
  27   13   15 2
  28   16   17 ar
  29   16   36 1
  30   17   18 ar
  31   17   37 1
  32   18   19 ar
  33   18   38 1
  34   19   20 ar
  35   19   39 1
  36   20   40 1
  37   21   23 ar
  38   21   22 ar
  39   22   26 ar
  40   22   41 1
  41   23   24 ar
  42   23   42 1
  43   24   25 ar
  44   24   43 1
  45   25   26 ar
  46   25   27 1
  47   26   44 1

#	End of record

