#	Name: ASD04490005
#	Creating user name:	WinNT
#	Creation time:	15. 06. 2019 20:49

#	Modifying user name:	WinNT
#	Modification time:	15. 06. 2019 20:49

#	Program:	/corina/corina34_cracker 3.40 0067  02.08.2006

@<TRIPOS>MOLECULE
ASD04490005
  36   37    0    0    0
SMALL
NO_CHARGES


@<TRIPOS>ATOM
   1 S1            -0.0172     1.4168     0.0098 S.o2    
   2 O2             0.0021    -0.0041     0.0020 O.2     
   3 O3             1.1617     2.2101     0.0028 O.2     
   4 O4            -0.8288     1.8423    -1.2054 O.3     
   5 O5            -0.8054     1.8291     1.2448 O.3     
   6 O6            -2.4839     6.4017    -0.7194 O.3     
   7 C7            -2.0608     7.5639    -1.2296 C.2     
   8 C8            -0.9687     7.3536    -2.0147 C.2     
   9 C9            -0.7143     5.8991    -1.9647 C.ar    
  10 C10           -1.7107     5.3741    -1.1296 C.ar    
  11 C11            0.2365     5.0614    -2.5396 C.ar    
  12 C12            0.1962     3.7042    -2.2835 C.ar    
  13 C13           -0.7944     3.1792    -1.4531 C.ar    
  14 C14           -1.7413     4.0073    -0.8807 C.ar    
  15 C15           -2.6982     8.9053    -0.9739 C.3     
  16 O16            1.1225     2.8792    -2.8421 O.3     
  17 C17            2.1072     3.4842    -3.6826 C.3     
  18 C18           -0.2023     8.3631    -2.7573 C.2     
  19 O19            0.7417     8.9189    -2.2301 O.2     
  20 O20           -0.5459     8.6734    -4.0235 O.3     
  21 C21            0.2558     9.6798    -4.6963 C.3     
  22 C22           -0.2810     9.8964    -6.1126 C.3     
  23 H23           -0.3741     1.6030     2.0803 H       
  24 H24            1.0024     5.4700    -3.1821 H       
  25 H25           -2.5042     3.5923    -0.2387 H       
  26 H26           -3.5540     8.7804    -0.3106 H       
  27 H27           -1.9711     9.5702    -0.5077 H       
  28 H28           -3.0305     9.3357    -1.9186 H       
  29 H29            1.6154     3.9812    -4.5188 H       
  30 H30            2.6752     4.2159    -3.1081 H       
  31 H31            2.7821     2.7169    -4.0619 H       
  32 H32            0.2041    10.6164    -4.1410 H       
  33 H33            1.2917     9.3446    -4.7477 H       
  34 H34            0.3208    10.6520    -6.6177 H       
  35 H35           -0.2294     8.9599    -6.6679 H       
  36 H36           -1.3169    10.2317    -6.0612 H       
@<TRIPOS>BOND
   1    1    2 2
   2    1    3 2
   3    1    4 1
   4    1    5 1
   5    4   13 1
   6    5   23 1
   7    6    7 1
   8    6   10 1
   9    7    8 2
  10    7   15 1
  11    8    9 1
  12    8   18 1
  13    9   10 ar
  14    9   11 ar
  15   10   14 ar
  16   11   12 ar
  17   11   24 1
  18   12   13 ar
  19   12   16 1
  20   13   14 ar
  21   14   25 1
  22   15   26 1
  23   15   27 1
  24   15   28 1
  25   16   17 1
  26   17   29 1
  27   17   30 1
  28   17   31 1
  29   18   19 2
  30   18   20 1
  31   20   21 1
  32   21   22 1
  33   21   32 1
  34   21   33 1
  35   22   34 1
  36   22   35 1
  37   22   36 1

#	End of record

