#	Name: ASD01900394
#	Creating user name:	WinNT
#	Creation time:	15. 06. 2019 19:51

#	Modifying user name:	WinNT
#	Modification time:	15. 06. 2019 19:51

#	Program:	/corina/corina34_cracker 3.40 0067  02.08.2006

@<TRIPOS>MOLECULE
ASD01900394
  43   47    0    0    0
SMALL
NO_CHARGES


@<TRIPOS>ATOM
   1 C1            -2.5235     0.6538     0.3315 C.ar    
   2 C2            -1.7241    -0.5027     0.4061 C.ar    
   3 C3            -2.3414    -1.7437     0.5590 C.ar    
   4 C4            -3.7199    -1.7832     0.6309 C.ar    
   5 C5            -4.4460    -0.6021     0.5503 C.ar    
   6 N6            -3.8489     0.5591     0.4069 N.ar    
   7 N7            -0.3837     1.2950     0.1614 N.2     
   8 N8            -0.4201    -0.0963     0.3009 N.pl3   
   9 C9            -1.5980     1.7772     0.1683 C.2     
  10 N10           -1.9508     3.1267     0.0495 N.pl3   
  11 C11           -0.9645     4.1001     0.0094 C.ar    
  12 N12           -1.3091     5.3616    -0.2041 N.ar    
  13 C13           -0.3930     6.3145    -0.2483 C.ar    
  14 C14            0.9401     5.9797    -0.0682 C.ar    
  15 C15            1.2656     4.6505     0.1530 C.ar    
  16 N16            0.2999     3.7475     0.1907 N.ar    
  17 C17           -3.3002     3.4934    -0.0287 C.ar    
  18 C18           -3.8852     4.2148     1.0042 C.ar    
  19 C19           -5.2161     4.5765     0.9259 C.ar    
  20 C20           -5.9686     4.2189    -0.1851 C.ar    
  21 C21           -5.3845     3.4986    -1.2162 C.ar    
  22 C22           -4.0524     3.1410    -1.1414 C.ar    
  23 O23           -7.2790     4.5747    -0.2617 O.3     
  24 C24           -7.5770     5.8022    -0.7506 C.ar    
  25 N25           -8.8350     6.2130    -0.7407 N.ar    
  26 C26           -9.1608     7.4062    -1.2100 C.ar    
  27 C27           -8.1659     8.2281    -1.7158 C.ar    
  28 C28           -6.8593     7.7657    -1.7106 C.ar    
  29 N29           -6.6024     6.5636    -1.2216 N.ar    
  30 Cl30          -5.9481     5.4777     2.2166 Cl      
  31 H31           -1.7569    -2.6499     0.6192 H       
  32 H32           -4.2306    -2.7275     0.7489 H       
  33 H33           -5.5239    -0.6391     0.6071 H       
  34 H34            0.3544    -0.6800     0.3204 H       
  35 H35           -0.6800     7.3409    -0.4230 H       
  36 H36            1.7085     6.7380    -0.0998 H       
  37 H37            2.2947     4.3564     0.2967 H       
  38 H38           -3.2998     4.4926     1.8683 H       
  39 H39           -5.9704     3.2205    -2.0797 H       
  40 H40           -3.5969     2.5839    -1.9467 H       
  41 H41          -10.1892     7.7357    -1.1996 H       
  42 H42           -8.4035     9.2068    -2.1056 H       
  43 H43           -6.0602     8.3808    -2.0973 H       
@<TRIPOS>BOND
   1    1    2 ar
   2    1    6 ar
   3    1    9 1
   4    2    3 ar
   5    2    8 1
   6    3    4 ar
   7    3   31 1
   8    4    5 ar
   9    4   32 1
  10    5    6 ar
  11    5   33 1
  12    7    8 1
  13    7    9 2
  14    8   34 1
  15    9   10 1
  16   10   11 1
  17   10   17 1
  18   11   12 ar
  19   11   16 ar
  20   12   13 ar
  21   13   14 ar
  22   13   35 1
  23   14   15 ar
  24   14   36 1
  25   15   16 ar
  26   15   37 1
  27   17   18 ar
  28   17   22 ar
  29   18   19 ar
  30   18   38 1
  31   19   20 ar
  32   19   30 1
  33   20   21 ar
  34   20   23 1
  35   21   22 ar
  36   21   39 1
  37   22   40 1
  38   23   24 1
  39   24   25 ar
  40   24   29 ar
  41   25   26 ar
  42   26   27 ar
  43   26   41 1
  44   27   28 ar
  45   27   42 1
  46   28   29 ar
  47   28   43 1

#	End of record

