#	Name: ASD01900170
#	Creating user name:	WinNT
#	Creation time:	15. 06. 2019 19:51

#	Modifying user name:	WinNT
#	Modification time:	15. 06. 2019 19:51

#	Program:	/corina/corina34_cracker 3.40 0067  02.08.2006

@<TRIPOS>MOLECULE
ASD01900170
  30   33    0    0    0
SMALL
NO_CHARGES


@<TRIPOS>ATOM
   1 N1            -0.0168     1.3887     0.0097 N.pl3   
   2 C2            -0.4711    -2.2025     0.6312 C.ar    
   3 C3            -0.6928    -0.8422     0.6768 C.ar    
   4 C4             0.1724     0.0088    -0.0106 C.ar    
   5 C5             1.2317    -0.5578    -0.7192 C.ar    
   6 C6             1.3838    -1.9285    -0.7144 C.ar    
   7 N7             0.5433    -2.7003    -0.0511 N.ar    
   8 N8             2.3138     1.8676    -0.1446 N.2     
   9 C9             1.0714     2.2397    -0.1127 C.2     
  10 S10            0.9813     3.9931    -0.2495 S.3     
  11 C11            2.7327     4.0814    -0.3499 C.2     
  12 C12            3.5782     5.3156    -0.5169 C.3     
  13 C13            4.9347     5.1770     0.1739 C.3     
  14 C14            5.5264     3.8165    -0.0824 C.2     
  15 N15            6.7642     3.4416    -0.1673 N.2     
  16 N16            6.7978     2.0573    -0.4022 N.pl3   
  17 C17            5.5207     1.6049    -0.4622 C.2     
  18 C18            4.7173     2.6624    -0.2771 C.2     
  19 C19            3.2296     2.8124    -0.2600 C.2     
  20 H20           -0.9101     1.7544     0.1054 H       
  21 H21           -1.1333    -2.8688     1.1641 H       
  22 H22           -1.5250    -0.4415     1.2366 H       
  23 H23            1.9228     0.0679    -1.2643 H       
  24 H24            2.2010    -2.3760    -1.2606 H       
  25 H25            3.7384     5.4944    -1.5801 H       
  26 H26            3.0490     6.1682    -0.0913 H       
  27 H27            5.6119     5.9408    -0.2083 H       
  28 H28            4.8068     5.3164     1.2474 H       
  29 H29            7.5973     1.5175    -0.5045 H       
  30 H30            5.2092     0.5842    -0.6279 H       
@<TRIPOS>BOND
   1    1    4 1
   2    1    9 1
   3    1   20 1
   4    2    3 ar
   5    2    7 ar
   6    2   21 1
   7    3    4 ar
   8    3   22 1
   9    4    5 ar
  10    5    6 ar
  11    5   23 1
  12    6    7 ar
  13    6   24 1
  14    8    9 2
  15    8   19 1
  16    9   10 1
  17   10   11 1
  18   11   12 1
  19   11   19 2
  20   12   13 1
  21   12   25 1
  22   12   26 1
  23   13   14 1
  24   13   27 1
  25   13   28 1
  26   14   15 2
  27   14   18 1
  28   15   16 1
  29   16   17 1
  30   16   29 1
  31   17   18 2
  32   17   30 1
  33   18   19 1

#	End of record

