#	Name: ASD01120372
#	Creating user name:	WinNT
#	Creation time:	15. 06. 2019 18:59

#	Modifying user name:	WinNT
#	Modification time:	15. 06. 2019 18:59

#	Program:	/corina/corina34_cracker 3.40 0067  02.08.2006

@<TRIPOS>MOLECULE
ASD01120372
  52   56    0    0    0
SMALL
NO_CHARGES


@<TRIPOS>ATOM
   1 C1            -0.0184     1.5034    -0.0340 C.3     
   2 C2             0.0021    -0.0041     0.0020 C.2     
   3 C3             1.2042    -0.6219     0.0279 C.2     
   4 C4             2.3924     0.1094     0.0209 C.2     
   5 C5             2.4341     1.5039    -0.0125 C.2     
   6 C6             1.2989     2.2373    -0.0403 C.2     
   7 N7             1.3475     3.7163    -0.0752 N.pl3   
   8 N8            -1.2562    -0.7837     0.0093 N.pl3   
   9 N9             3.6732    -0.6311     0.0508 N.2     
  10 O10            3.6719    -2.0467     0.0856 O.3     
  11 O11            4.9001     0.0758     0.0447 O.3     
  12 O12           -0.7522     1.9063    -1.1943 O.3     
  13 O13           -0.7621     1.9549     1.1087 O.3     
  14 C14           -2.1303     2.0249    -0.8031 C.3     
  15 C15           -2.1415     1.7368     0.7279 C.3     
  16 C16           -2.9973     2.8732     1.3168 C.3     
  17 O17           -3.4926     3.6525     0.2160 O.3     
  18 C18           -2.5396     3.5164    -0.8586 C.3     
  19 C19           -3.1943     3.8442    -2.2020 C.3     
  20 O20           -3.4567     5.2470    -2.2743 O.3     
  21 P21           -4.1429     5.9460    -3.5521 P.3     
  22 O22           -4.1647     7.5423    -3.3433 O.3     
  23 O23           -3.3676     5.6182    -4.7694 O.2     
  24 O24           -5.6507     5.4053    -3.7143 O.3     
  25 N25           -4.1190     2.3109     2.0731 N.pl3   
  26 N26           -6.1221     1.5820     2.5424 N.2     
  27 C27           -5.3795     2.0912     1.6029 C.2     
  28 C28           -4.0918     1.9035     3.3829 C.ar    
  29 C29           -5.3867     1.4398     3.6712 C.ar    
  30 N30           -3.1661     1.8679     4.3357 N.ar    
  31 C31           -3.4541     1.4055     5.5342 C.ar    
  32 N32           -4.6556     0.9594     5.8519 N.ar    
  33 C33           -5.6462     0.9589     4.9657 C.ar    
  34 N34           -6.9022     0.4896     5.3081 N.pl3   
  35 O35            2.4217     4.2904    -0.0797 O.2     
  36 O36            0.3133     4.3592    -0.0995 O.2     
  37 O37           -1.7161    -1.1879     1.0622 O.2     
  38 O38           -1.8316    -1.0210    -1.0377 O.2     
  39 H39            1.2455    -1.7008     0.0549 H       
  40 H40            3.3902     2.0060    -0.0158 H       
  41 H41           -2.7913     1.3685    -1.3691 H       
  42 H42           -2.5033     0.7394     0.9778 H       
  43 H43           -2.3858     3.4982     1.9676 H       
  44 H44           -1.6748     4.1572    -0.6867 H       
  45 H45           -2.5240     3.5576    -3.0124 H       
  46 H46           -4.1309     3.2942    -2.2936 H       
  47 H47           -4.5651     8.0294    -4.0764 H       
  48 H48           -6.2174     5.5857    -2.9518 H       
  49 H49           -5.7127     2.3078     0.5986 H       
  50 H50           -2.6785     1.3902     6.2856 H       
  51 H51           -7.6158     0.4900     4.6511 H       
  52 H52           -7.0690     0.1601     6.2050 H       
@<TRIPOS>BOND
   1    1    2 1
   2    1    6 1
   3    1   12 1
   4    1   13 1
   5    2    3 2
   6    2    8 1
   7    3    4 1
   8    3   39 1
   9    4    5 1
  10    4    9 2
  11    5    6 2
  12    5   40 1
  13    6    7 1
  14    7   35 2
  15    7   36 2
  16    8   37 2
  17    8   38 2
  18    9   10 1
  19    9   11 1
  20   12   14 1
  21   13   15 1
  22   14   15 1
  23   14   18 1
  24   14   41 1
  25   15   16 1
  26   15   42 1
  27   16   17 1
  28   16   25 1
  29   16   43 1
  30   17   18 1
  31   18   19 1
  32   18   44 1
  33   19   20 1
  34   19   45 1
  35   19   46 1
  36   20   21 1
  37   21   22 1
  38   21   23 2
  39   21   24 1
  40   22   47 1
  41   24   48 1
  42   25   28 1
  43   25   27 1
  44   26   27 2
  45   26   29 1
  46   27   49 1
  47   28   30 ar
  48   28   29 ar
  49   29   33 ar
  50   30   31 ar
  51   31   32 ar
  52   31   50 1
  53   32   33 ar
  54   33   34 1
  55   34   51 1
  56   34   52 1

#	End of record

