#	Name: ASD03430360
#	Creating user name:	WinNT
#	Creation time:	15. 06. 2019 20:40

#	Modifying user name:	WinNT
#	Modification time:	15. 06. 2019 20:40

#	Program:	/corina/corina34_cracker 3.40 0067  02.08.2006

@<TRIPOS>MOLECULE
ASD03430360
  54   59    0    0    0
SMALL
NO_CHARGES


@<TRIPOS>ATOM
   1 C1            -0.0167     1.3821     0.0096 C.ar    
   2 C2             0.0021    -0.0041     0.0020 C.ar    
   3 C3             1.2028    -0.6818    -0.0162 C.ar    
   4 C4             2.4087     0.0129    -0.0162 C.ar    
   5 C5             2.3861     1.4039    -0.0119 C.ar    
   6 C6             1.1815     2.0867     0.0020 C.ar    
   7 O7             3.4713    -0.8419    -0.0074 O.3     
   8 C8             1.5511    -2.1458    -0.0509 C.3     
   9 C9             3.0363    -2.1458    -0.4380 C.3     
  10 C10            0.4268    -3.8598     1.0070 C.ar    
  11 C11            1.3158    -2.8198     1.2682 C.ar    
  12 C12            0.7167    -2.9064    -1.0410 C.2     
  13 N13            0.0966    -3.8836    -0.3502 N.am    
  14 O14            0.6192    -2.6843    -2.2294 O.2     
  15 C15            1.7821    -2.6009     2.5448 C.ar    
  16 C16            1.3690    -3.4172     3.5832 C.ar    
  17 C17            0.4871    -4.4527     3.3353 C.ar    
  18 C18            0.0170    -4.6765     2.0576 C.ar    
  19 C19           -0.8166    -4.8579    -0.9526 C.3     
  20 C20           -2.2242    -4.3214    -0.9082 C.ar    
  21 C21           -2.7060    -3.5639    -1.9611 C.ar    
  22 C22           -3.0307    -4.5932     0.1827 C.ar    
  23 C23           -4.3201    -4.1052     0.2299 C.ar    
  24 C24           -4.8108    -3.3354    -0.8266 C.ar    
  25 C25           -3.9934    -3.0697    -1.9270 C.ar    
  26 O26           -1.2113     2.0356     0.0189 O.3     
  27 C27           -1.1865     3.4165     0.3963 C.3     
  28 C28           -0.0349     4.0988    -0.3543 C.3     
  29 O29            1.1866     3.4483     0.0115 O.3     
  30 C30           -6.1906    -2.8094    -0.7831 C.2     
  31 O31           -6.9010    -3.0463     0.1733 O.2     
  32 O32           -6.6609    -2.0670    -1.8040 O.3     
  33 C33           -8.0256    -1.5835    -1.6935 C.3     
  34 H34           -0.9268    -0.5550     0.0107 H       
  35 H35            3.3148     1.9551    -0.0190 H       
  36 H36            3.1554    -2.2571    -1.5158 H       
  37 H37            3.5752    -2.9292     0.0949 H       
  38 H38            2.4713    -1.7916     2.7361 H       
  39 H39            1.7349    -3.2459     4.5848 H       
  40 H40            0.1649    -5.0898     4.1457 H       
  41 H41           -0.6714    -5.4876     1.8718 H       
  42 H42           -0.5276    -5.0346    -1.9886 H       
  43 H43           -0.7671    -5.7943    -0.3969 H       
  44 H44           -2.0725    -3.3589    -2.8115 H       
  45 H45           -2.6500    -5.1891     0.9991 H       
  46 H46           -4.9487    -4.3184     1.0818 H       
  47 H47           -4.3667    -2.4749    -2.7475 H       
  48 H48           -2.1315     3.8882     0.1269 H       
  49 H49           -1.0261     3.5010     1.4711 H       
  50 H50           -0.1916     4.0078    -1.4291 H       
  51 H51            0.0118     5.1519    -0.0769 H       
  52 H52           -8.7057    -2.4311    -1.6101 H       
  53 H53           -8.1178    -0.9551    -0.8076 H       
  54 H54           -8.2776    -1.0012    -2.5798 H       
@<TRIPOS>BOND
   1    1    2 ar
   2    1    6 ar
   3    1   26 1
   4    2    3 ar
   5    2   34 1
   6    3    4 ar
   7    3    8 1
   8    4    5 ar
   9    4    7 1
  10    5    6 ar
  11    5   35 1
  12    6   29 1
  13    7    9 1
  14    8    9 1
  15    8   11 1
  16    8   12 1
  17    9   36 1
  18    9   37 1
  19   10   11 ar
  20   10   13 1
  21   10   18 ar
  22   11   15 ar
  23   12   13 am
  24   12   14 2
  25   13   19 1
  26   15   16 ar
  27   15   38 1
  28   16   17 ar
  29   16   39 1
  30   17   18 ar
  31   17   40 1
  32   18   41 1
  33   19   20 1
  34   19   42 1
  35   19   43 1
  36   20   21 ar
  37   20   22 ar
  38   21   25 ar
  39   21   44 1
  40   22   23 ar
  41   22   45 1
  42   23   24 ar
  43   23   46 1
  44   24   25 ar
  45   24   30 1
  46   25   47 1
  47   26   27 1
  48   27   28 1
  49   27   48 1
  50   27   49 1
  51   28   29 1
  52   28   50 1
  53   28   51 1
  54   30   31 2
  55   30   32 1
  56   32   33 1
  57   33   52 1
  58   33   53 1
  59   33   54 1

#	End of record

