#	Name: ASD03200015
#	Creating user name:	WinNT
#	Creation time:	15. 06. 2019 20:34

#	Modifying user name:	WinNT
#	Modification time:	15. 06. 2019 20:34

#	Program:	/corina/corina34_cracker 3.40 0067  02.08.2006

@<TRIPOS>MOLECULE
ASD03200015
  33   35    0    0    0
SMALL
NO_CHARGES


@<TRIPOS>ATOM
   1 C1             2.2186     1.3355    -0.6211 C.ar    
   2 C2             2.1420    -0.0478    -0.6099 C.ar    
   3 C3             1.0663    -0.6595     0.0060 C.ar    
   4 N4             0.1174     0.0548     0.5794 N.ar    
   5 C5             0.1514     1.3722     0.5916 C.ar    
   6 C6             1.2002     2.0593    -0.0062 C.ar    
   7 N7             1.2326     3.4577     0.0089 N.am    
   8 C8             2.4119     4.1034     0.1033 C.2     
   9 C9             2.4574     5.5642     0.0008 C.2     
  10 O10            3.4392     3.4728     0.2738 O.2     
  11 C11            3.6281     6.2811     0.0889 C.2     
  12 S12            3.2738     7.9455    -0.0775 S.3     
  13 C13            1.5609     7.5886    -0.2579 C.2     
  14 N14            1.3676     6.3095    -0.1915 N.2     
  15 C15            0.5001     8.5982    -0.4609 C.ar    
  16 C16            0.8255     9.9540    -0.5229 C.ar    
  17 C17           -0.1692    10.8910    -0.7125 C.ar    
  18 C18           -1.4868    10.4892    -0.8412 C.ar    
  19 C19           -1.8161     9.1468    -0.7807 C.ar    
  20 C20           -0.8303     8.1992    -0.5973 C.ar    
  21 N21            4.8849     5.7439     0.2806 N.pl3   
  22 H22            3.0499     1.8399    -1.0912 H       
  23 H23            2.9137    -0.6413    -1.0774 H       
  24 H24            1.0018    -1.7375     0.0175 H       
  25 H25           -0.6442     1.9230     1.0712 H       
  26 H26            0.4064     3.9626    -0.0486 H       
  27 H27            1.8536    10.2689    -0.4222 H       
  28 H28            0.0812    11.9405    -0.7602 H       
  29 H29           -2.2618    11.2268    -0.9892 H       
  30 H30           -2.8466     8.8397    -0.8819 H       
  31 H31           -1.0886     7.1516    -0.5506 H       
  32 H32            4.9943     4.7838     0.3651 H       
  33 H33            5.6589     6.3265     0.3307 H       
@<TRIPOS>BOND
   1    1    2 ar
   2    1    6 ar
   3    1   22 1
   4    2    3 ar
   5    2   23 1
   6    3    4 ar
   7    3   24 1
   8    4    5 ar
   9    5    6 ar
  10    5   25 1
  11    6    7 1
  12    7    8 am
  13    7   26 1
  14    8    9 1
  15    8   10 2
  16    9   11 2
  17    9   14 1
  18   11   12 1
  19   11   21 1
  20   12   13 1
  21   13   14 2
  22   13   15 1
  23   15   16 ar
  24   15   20 ar
  25   16   17 ar
  26   16   27 1
  27   17   18 ar
  28   17   28 1
  29   18   19 ar
  30   18   29 1
  31   19   20 ar
  32   19   30 1
  33   20   31 1
  34   21   32 1
  35   21   33 1

#	End of record

