#	Name: ASD04882289
#	Creating user name:	WinNT
#	Creation time:	15. 06. 2019 20:54

#	Modifying user name:	WinNT
#	Modification time:	15. 06. 2019 20:54

#	Program:	/corina/corina34_cracker 3.40 0067  02.08.2006

@<TRIPOS>MOLECULE
ASD04882289
  81   86    0    0    0
SMALL
NO_CHARGES


@<TRIPOS>ATOM
   1 N1            -0.0169     1.3969     0.0097 N.am    
   2 C2             0.1092     0.0021    -0.0338 C.ar    
   3 C3            -1.0284    -0.8058     0.0463 C.ar    
   4 C4            -0.9048    -2.1899     0.0037 C.ar    
   5 C5             0.3385    -2.7698    -0.1178 C.ar    
   6 C6             1.4802    -1.9676    -0.1983 C.ar    
   7 C7             1.3581    -0.5757    -0.1615 C.ar    
   8 N8            -2.2874    -0.2237     0.1692 N.3     
   9 C9            -3.1534    -0.5989    -0.9573 C.3     
  10 C10           -2.9105    -0.5822     1.4509 C.3     
  11 C11           -4.2540     0.1392     1.5814 C.3     
  12 N12           -5.1200    -0.2360     0.4550 N.3     
  13 C13           -4.4969     0.1224    -0.8268 C.3     
  14 C14            2.8120    -2.5891    -0.3274 C.2     
  15 O15            3.8047    -1.8905    -0.3974 O.2     
  16 C16            0.9214     2.1765    -0.5632 C.2     
  17 C17            0.7444     3.6424    -0.5952 C.2     
  18 O18            1.9135     1.6730    -1.0537 O.2     
  19 N19           -0.2741     4.3205    -0.1051 N.2     
  20 C20            1.6391     4.5866    -1.1525 C.2     
  21 C21            1.0628     5.7946    -0.9498 C.2     
  22 N22           -0.1043     5.5780    -0.3060 N.pl3   
  23 N23            2.9282    -3.9313    -0.3679 N.am    
  24 C24           -6.3828     0.3478     0.5783 C.ar    
  25 C25           -6.5092     1.7303     0.6215 C.ar    
  26 C26           -7.5158    -0.4528     0.6523 C.ar    
  27 C27           -8.7627     0.1277     0.7742 C.ar    
  28 C28           -8.8846     1.5046     0.8222 C.ar    
  29 C29           -7.7595     2.3044     0.7435 C.ar    
  30 C30           -7.3841    -1.9531     0.5991 C.3     
  31 C31            1.6218     7.1321    -1.3615 C.3     
  32 C32            0.6278     8.2056    -1.8094 C.3     
  33 C33            1.3289     8.3294    -0.4551 C.3     
  34 C34            4.2507    -4.5484    -0.4961 C.3     
  35 C35            4.1029    -6.0711    -0.5178 C.3     
  36 C36            5.4840    -6.7157    -0.6518 C.3     
  37 N37            5.3425    -8.1737    -0.6726 N.am    
  38 C38            5.1583    -8.9705    -1.8912 C.3     
  39 C39            4.6301   -10.3408    -1.4117 C.3     
  40 C40            5.1811   -10.4035     0.0317 C.3     
  41 C41            5.3706    -8.9541     0.4215 C.2     
  42 O42            5.5187    -8.5538     1.5567 O.2     
  43 H43           -0.7816     1.8013     0.4487 H       
  44 H44           -1.7855    -2.8117     0.0665 H       
  45 H45            0.4312    -3.8453    -0.1505 H       
  46 H46            2.2386     0.0466    -0.2235 H       
  47 H47           -2.6760    -0.3120    -1.8942 H       
  48 H48           -3.3167    -1.6766    -0.9471 H       
  49 H49           -3.0711    -1.6596     1.4885 H       
  50 H50           -2.2561    -0.2830     2.2697 H       
  51 H51           -4.7313    -0.1478     2.5184 H       
  52 H52           -4.0906     1.2168     1.5713 H       
  53 H53           -4.3363     1.1999    -0.8643 H       
  54 H54           -5.1513    -0.1767    -1.6455 H       
  55 H55            2.5833     4.3858    -1.6369 H       
  56 H56           -0.7250     6.2720    -0.0342 H       
  57 H57            2.1363    -4.4886    -0.3121 H       
  58 H58           -5.6308     2.3557     0.5600 H       
  59 H59           -9.6439    -0.4941     0.8318 H       
  60 H60           -9.8611     1.9561     0.9169 H       
  61 H61           -7.8582     3.3793     0.7813 H       
  62 H62           -7.2652    -2.3434     1.6099 H       
  63 H63           -8.2793    -2.3806     0.1475 H       
  64 H64           -6.5126    -2.2203     0.0016 H       
  65 H65            2.5904     7.1034    -1.8606 H       
  66 H66            0.9427     8.8833    -2.6029 H       
  67 H67           -0.4304     7.9444    -1.8063 H       
  68 H68            0.7319     8.1497     0.4390 H       
  69 H69            2.1049     9.0887    -0.3577 H       
  70 H70            4.7187    -4.2156    -1.4226 H       
  71 H71            4.8719    -4.2557     0.3503 H       
  72 H72            3.6349    -6.4040     0.4086 H       
  73 H73            3.4817    -6.3639    -1.3643 H       
  74 H74            5.9520    -6.3828    -1.5782 H       
  75 H75            6.1052    -6.4230     0.1947 H       
  76 H76            4.4296    -8.4939    -2.5469 H       
  77 H77            6.1095    -9.0932    -2.4091 H       
  78 H78            3.5403   -10.3614    -1.4145 H       
  79 H79            5.0356   -11.1496    -2.0196 H       
  80 H80            4.4635   -10.8888     0.6932 H       
  81 H81            6.1363   -10.9282     0.0529 H       
@<TRIPOS>BOND
   1    1    2 1
   2    1   16 am
   3    1   43 1
   4    2    3 ar
   5    2    7 ar
   6    3    4 ar
   7    3    8 1
   8    4    5 ar
   9    4   44 1
  10    5    6 ar
  11    5   45 1
  12    6    7 ar
  13    6   14 1
  14    7   46 1
  15    8    9 1
  16    8   10 1
  17    9   13 1
  18    9   47 1
  19    9   48 1
  20   10   11 1
  21   10   49 1
  22   10   50 1
  23   11   12 1
  24   11   51 1
  25   11   52 1
  26   12   13 1
  27   12   24 1
  28   13   53 1
  29   13   54 1
  30   14   15 2
  31   14   23 am
  32   16   18 2
  33   16   17 1
  34   17   19 2
  35   17   20 1
  36   19   22 1
  37   20   21 2
  38   20   55 1
  39   21   22 1
  40   21   31 1
  41   22   56 1
  42   23   34 1
  43   23   57 1
  44   24   25 ar
  45   24   26 ar
  46   25   29 ar
  47   25   58 1
  48   26   27 ar
  49   26   30 1
  50   27   28 ar
  51   27   59 1
  52   28   29 ar
  53   28   60 1
  54   29   61 1
  55   30   62 1
  56   30   63 1
  57   30   64 1
  58   31   32 1
  59   31   33 1
  60   31   65 1
  61   32   33 1
  62   32   66 1
  63   32   67 1
  64   33   68 1
  65   33   69 1
  66   34   35 1
  67   34   70 1
  68   34   71 1
  69   35   36 1
  70   35   72 1
  71   35   73 1
  72   36   37 1
  73   36   74 1
  74   36   75 1
  75   37   38 1
  76   37   41 am
  77   38   39 1
  78   38   76 1
  79   38   77 1
  80   39   40 1
  81   39   78 1
  82   39   79 1
  83   40   41 1
  84   40   80 1
  85   40   81 1
  86   41   42 2

#	End of record

