#	Name: ASD08150612
#	Creating user name:	WinNT
#	Creation time:	15. 06. 2019 21:16

#	Modifying user name:	WinNT
#	Modification time:	15. 06. 2019 21:16

#	Program:	/corina/corina34_cracker 3.40 0067  02.08.2006

@<TRIPOS>MOLECULE
ASD08150612
  69   75    0    0    0
SMALL
NO_CHARGES


@<TRIPOS>ATOM
   1 N1             0.0333     1.3209     2.0376 N.am    
   2 C2             0.1729     0.2474     1.2358 C.2     
   3 C3             1.3990    -0.4435     1.1584 C.2     
   4 C4             2.4622    -0.0328     1.8959 C.2     
   5 C5             2.3189     1.0964     2.7399 C.ar    
   6 C6             3.3897     1.5643     3.5253 C.ar    
   7 N7             3.2548     2.6068     4.3028 N.ar    
   8 C8             2.1018     3.2861     4.3987 C.ar    
   9 C9             0.9712     2.8863     3.6445 C.ar    
  10 C10            1.0840     1.7616     2.7936 C.ar    
  11 C11           -0.2258     3.6007     3.7519 C.ar    
  12 C12           -0.2931     4.6959     4.5981 C.ar    
  13 C13            0.8300     5.0859     5.3410 C.ar    
  14 C14            2.0010     4.4007     5.2475 C.ar    
  15 O15           -0.7745    -0.1321     0.5685 O.2     
  16 C16           -1.5589     5.4593     4.7181 C.ar    
  17 C17           -1.1954     1.9942     2.0928 C.ar    
  18 C18           -1.4767     3.0016     1.1807 C.ar    
  19 C19           -2.6864     3.6651     1.2343 C.ar    
  20 C20           -3.6250     3.3256     2.2011 C.ar    
  21 C21           -3.3477     2.3183     3.1156 C.ar    
  22 C22           -2.1371     1.6482     3.0599 C.ar    
  23 N23           -4.8489     3.9988     2.2532 N.3     
  24 C24           -5.5946     3.8331     0.9990 C.3     
  25 C25           -6.8563     4.6983     1.0360 C.3     
  26 C26           -2.3738     5.6589     3.5923 C.ar    
  27 C27           -5.6440     3.5569     3.4060 C.3     
  28 C28           -6.9072     4.4139     3.5148 C.3     
  29 C29           -7.7230     4.2778     2.2262 C.3     
  30 N30           -8.9074     5.1436     2.3012 N.3     
  31 O31           -1.8655     0.6582     3.9510 O.3     
  32 C32           -2.8771     0.3570     4.9143 C.3     
  33 N33           -3.4958     6.3284     3.6687 N.ar    
  34 C34           -3.9220     6.8555     4.8215 C.ar    
  35 C35           -3.1548     6.6971     6.0032 C.ar    
  36 C36           -1.9494     5.9767     5.9448 C.ar    
  37 C37           -5.1299     7.5720     4.8837 C.ar    
  38 C38           -5.5431     8.0997     6.0682 C.ar    
  39 C39           -4.7873     7.9431     7.2284 C.ar    
  40 C40           -3.6125     7.2556     7.2087 C.ar    
  41 H41            1.4928    -1.3025     0.5105 H       
  42 H42            3.4035    -0.5594     1.8404 H       
  43 H43            4.3399     1.0526     3.4850 H       
  44 H44           -1.0913     3.3015     3.1794 H       
  45 H45            0.7643     5.9416     5.9967 H       
  46 H46            2.8563     4.7148     5.8273 H       
  47 H47           -0.7486     3.2671     0.4285 H       
  48 H48           -2.9033     4.4493     0.5241 H       
  49 H49           -4.0771     2.0551     3.8673 H       
  50 H50           -4.9685     4.1395     0.1611 H       
  51 H51           -5.8752     2.7867     0.8789 H       
  52 H52           -6.5760     5.7463     1.1422 H       
  53 H53           -7.4175     4.5630     0.1114 H       
  54 H54           -2.0673     5.2505     2.6406 H       
  55 H55           -5.9243     2.5118     3.2746 H       
  56 H56           -5.0538     3.6628     4.3163 H       
  57 H57           -7.5048     4.0755     4.3613 H       
  58 H58           -6.6276     5.4574     3.6601 H       
  59 H59           -8.0357     3.2412     2.1009 H       
  60 H60           -9.4621     5.0710     1.4615 H       
  61 H61           -9.4593     4.9312     3.1187 H       
  62 H62           -3.0824     1.2432     5.5148 H       
  63 H63           -3.7872     0.0472     4.4007 H       
  64 H64           -2.5331    -0.4492     5.5623 H       
  65 H65           -1.3412     5.8375     6.8263 H       
  66 H66           -5.7279     7.7036     3.9940 H       
  67 H67           -6.4720     8.6491     6.1095 H       
  68 H68           -5.1382     8.3724     8.1552 H       
  69 H69           -3.0354     7.1404     8.1142 H       
@<TRIPOS>BOND
   1    1    2 am
   2    1   10 1
   3    1   17 1
   4    2    3 1
   5    2   15 2
   6    3    4 2
   7    3   41 1
   8    4    5 1
   9    4   42 1
  10    5    6 ar
  11    5   10 ar
  12    6    7 ar
  13    6   43 1
  14    7    8 ar
  15    8    9 ar
  16    8   14 ar
  17    9   10 ar
  18    9   11 ar
  19   11   12 ar
  20   11   44 1
  21   12   13 ar
  22   12   16 1
  23   13   14 ar
  24   13   45 1
  25   14   46 1
  26   16   26 ar
  27   16   36 ar
  28   17   18 ar
  29   17   22 ar
  30   18   19 ar
  31   18   47 1
  32   19   20 ar
  33   19   48 1
  34   20   21 ar
  35   20   23 1
  36   21   22 ar
  37   21   49 1
  38   22   31 1
  39   23   24 1
  40   23   27 1
  41   24   25 1
  42   24   50 1
  43   24   51 1
  44   25   29 1
  45   25   52 1
  46   25   53 1
  47   26   33 ar
  48   26   54 1
  49   27   28 1
  50   27   55 1
  51   27   56 1
  52   28   29 1
  53   28   57 1
  54   28   58 1
  55   29   30 1
  56   29   59 1
  57   30   60 1
  58   30   61 1
  59   31   32 1
  60   32   62 1
  61   32   63 1
  62   32   64 1
  63   33   34 ar
  64   34   35 ar
  65   34   37 ar
  66   35   36 ar
  67   35   40 ar
  68   36   65 1
  69   37   38 ar
  70   37   66 1
  71   38   39 ar
  72   38   67 1
  73   39   40 ar
  74   39   68 1
  75   40   69 1

#	End of record

