#	Name: ASD00100034
#	Creating user name:	WinNT
#	Creation time:	15. 06. 2019 18:30

#	Modifying user name:	WinNT
#	Modification time:	15. 06. 2019 18:30

#	Program:	/corina/corina34_cracker 3.40 0067  02.08.2006

@<TRIPOS>MOLECULE
ASD00100034
  63   66    0    0    0
SMALL
NO_CHARGES


@<TRIPOS>ATOM
   1 C1            -0.0187     1.5258     0.0104 C.3     
   2 C2             0.0021    -0.0041     0.0020 C.3     
   3 S3             1.6831     2.1537    -0.0024 S.o2    
   4 O4             2.3325     1.8596     1.2268 O.2     
   5 O5             2.3088     1.8728    -1.2470 O.2     
   6 N6             1.5158     3.8011     0.0080 N.am    
   7 C7             0.9194     4.4695     1.1672 C.3     
   8 C8             1.6010     5.8223     1.3825 C.3     
   9 C9             0.9781     6.5203     2.5931 C.3     
  10 C10           -0.5161     6.7359     2.3445 C.3     
  11 C11           -1.1977     5.3831     2.1293 C.3     
  12 C12           -0.5748     4.6851     0.9186 C.3     
  13 C13           -1.1390     7.4339     3.5552 C.3     
  14 C14           -2.6036     7.7614     3.2573 C.3     
  15 N15           -3.2017     8.4316     4.4197 N.3     
  16 C16           -4.5271     8.9717     4.0914 C.3     
  17 C17           -5.0556     9.7850     5.2751 C.3     
  18 C18           -5.1428     8.8831     6.5094 C.3     
  19 C19           -3.7593     8.2952     6.8011 C.3     
  20 C20           -3.2685     7.5251     5.5730 C.3     
  21 O21           -5.7022    11.2237     9.2717 O.3     
  22 C22           -4.9972    10.7619     8.2242 C.2     
  23 C23           -5.6057     9.6928     7.6931 C.2     
  24 C24           -6.8140     9.4691     8.4959 C.ar    
  25 C25           -6.8064    10.4770     9.4749 C.ar    
  26 C26           -7.8495     8.5368     8.4589 C.ar    
  27 C27           -8.8644     8.6098     9.3876 C.ar    
  28 C28           -8.8574     9.6046    10.3544 C.ar    
  29 C29           -7.8392    10.5327    10.4018 C.ar    
  30 H30           -0.5459     1.8868    -0.8726 H       
  31 H31           -0.5289     1.8773     0.9072 H       
  32 H32            0.5293    -0.3651     0.8851 H       
  33 H33           -1.0205    -0.3814     0.0098 H       
  34 H34            0.5123    -0.3556    -0.8948 H       
  35 H35            1.8128     4.3236    -0.7534 H       
  36 H36            1.0545     3.8495     2.0534 H       
  37 H37            2.6655     5.6687     1.5596 H       
  38 H38            1.4658     6.4423     0.4963 H       
  39 H39            1.1132     5.9002     3.4793 H       
  40 H40            1.4637     7.4840     2.7465 H       
  41 H41           -0.6513     7.3559     1.4583 H       
  42 H42           -1.0626     4.7631     3.0155 H       
  43 H43           -2.2622     5.5367     1.9522 H       
  44 H44           -0.7099     5.3052     0.0324 H       
  45 H45           -1.0604     3.7214     0.7653 H       
  46 H46           -1.0830     6.7761     4.4225 H       
  47 H47           -0.5955     8.3557     3.7626 H       
  48 H48           -2.6596     8.4193     2.3900 H       
  49 H49           -3.1471     6.8397     3.0499 H       
  50 H50           -4.4503     9.6146     3.2145 H       
  51 H51           -5.2119     8.1504     3.8805 H       
  52 H52           -4.3784    10.6148     5.4779 H       
  53 H53           -6.0460    10.1728     5.0371 H       
  54 H54           -5.8496     8.0750     6.3209 H       
  55 H55           -3.0617     9.1015     7.0278 H       
  56 H56           -3.8237     7.6186     7.6532 H       
  57 H57           -3.9592     6.7105     5.3552 H       
  58 H58           -2.2775     7.1173     5.7723 H       
  59 H59           -4.0740    11.1907     7.8631 H       
  60 H60           -7.8563     7.7620     7.7066 H       
  61 H61           -9.6690     7.8898     9.3627 H       
  62 H62           -9.6583     9.6527    11.0774 H       
  63 H63           -7.8445    11.3025    11.1592 H       
@<TRIPOS>BOND
   1    1    2 1
   2    1    3 1
   3    1   30 1
   4    1   31 1
   5    2   32 1
   6    2   33 1
   7    2   34 1
   8    3    4 2
   9    3    5 2
  10    3    6 am
  11    6    7 1
  12    6   35 1
  13    7    8 1
  14    7   12 1
  15    7   36 1
  16    8    9 1
  17    8   37 1
  18    8   38 1
  19    9   10 1
  20    9   39 1
  21    9   40 1
  22   10   11 1
  23   10   13 1
  24   10   41 1
  25   11   12 1
  26   11   42 1
  27   11   43 1
  28   12   44 1
  29   12   45 1
  30   13   14 1
  31   13   46 1
  32   13   47 1
  33   14   15 1
  34   14   48 1
  35   14   49 1
  36   15   16 1
  37   15   20 1
  38   16   17 1
  39   16   50 1
  40   16   51 1
  41   17   18 1
  42   17   52 1
  43   17   53 1
  44   18   19 1
  45   18   23 1
  46   18   54 1
  47   19   20 1
  48   19   55 1
  49   19   56 1
  50   20   57 1
  51   20   58 1
  52   21   22 1
  53   21   25 1
  54   22   23 2
  55   22   59 1
  56   23   24 1
  57   24   25 ar
  58   24   26 ar
  59   25   29 ar
  60   26   27 ar
  61   26   60 1
  62   27   28 ar
  63   27   61 1
  64   28   29 ar
  65   28   62 1
  66   29   63 1

#	End of record

