#	Name: ASD01917043
#	Creating user name:	WinNT
#	Creation time:	15. 06. 2019 20:08

#	Modifying user name:	WinNT
#	Modification time:	15. 06. 2019 20:08

#	Program:	/corina/corina34_cracker 3.40 0067  02.08.2006

@<TRIPOS>MOLECULE
ASD01917043
  41   43    0    0    0
SMALL
NO_CHARGES


@<TRIPOS>ATOM
   1 C1            -0.0119     1.4259    -0.4238 C.ar    
   2 C2            -0.0203     0.0450    -0.2753 C.ar    
   3 C3             1.1683    -0.6413    -0.0630 C.ar    
   4 C4             2.3611     0.0464     0.0014 C.ar    
   5 C5             2.3735     1.4340    -0.1474 C.ar    
   6 C6             1.1771     2.1202    -0.3610 C.ar    
   7 C7             3.6513     2.1756    -0.0784 C.2     
   8 N8             4.8524     1.6658    -0.2542 N.2     
   9 C9             5.7738     2.6264    -0.1204 C.2     
  10 N10            5.1695     3.7647     0.1435 N.2     
  11 N11            3.7909     3.4987     0.1708 N.pl3   
  12 C12            2.7167     4.4614     0.4269 C.3     
  13 C13            2.2984     5.1042    -0.8703 C.2     
  14 O14            1.3221     6.0254    -0.8787 O.3     
  15 O15            2.8419     4.7905    -1.9028 O.2     
  16 C16            0.9714     6.6024    -2.1641 C.3     
  17 C17            7.2403     2.4381    -0.2480 C.ar    
  18 C18            7.7609     1.1769    -0.5308 C.ar    
  19 C19            8.1003     3.5232    -0.0910 C.ar    
  20 C20            9.4631     3.3438    -0.2110 C.ar    
  21 C21            9.9768     2.0871    -0.4870 C.ar    
  22 C22            9.1249     1.0064    -0.6490 C.ar    
  23 F23           11.3118     1.9158    -0.6037 F       
  24 O24           -1.1940    -0.6359    -0.3373 O.3     
  25 C25           -1.1304    -2.0544    -0.1764 C.3     
  26 H26           -0.9376     1.9558    -0.5932 H       
  27 H27            1.1579    -1.7151     0.0521 H       
  28 H28            3.2849    -0.4879     0.1672 H       
  29 H29            1.1829     3.1940    -0.4769 H       
  30 H30            1.8640     3.9453     0.8682 H       
  31 H31            3.0726     5.2286     1.1145 H       
  32 H32            1.8441     7.0968    -2.5908 H       
  33 H33            0.6355     5.8135    -2.8371 H       
  34 H34            0.1712     7.3302    -2.0295 H       
  35 H35            7.0976     0.3340    -0.6569 H       
  36 H36            7.7007     4.5033     0.1238 H       
  37 H37           10.1303     4.1844    -0.0898 H       
  38 H38            9.5295     0.0284    -0.8638 H       
  39 H39           -0.7059    -2.2906     0.7994 H       
  40 H40           -2.1341    -2.4734    -0.2471 H       
  41 H41           -0.5026    -2.4810    -0.9586 H       
@<TRIPOS>BOND
   1    1    2 ar
   2    1    6 ar
   3    1   26 1
   4    2    3 ar
   5    2   24 1
   6    3    4 ar
   7    3   27 1
   8    4    5 ar
   9    4   28 1
  10    5    6 ar
  11    5    7 1
  12    6   29 1
  13    7    8 2
  14    7   11 1
  15    8    9 1
  16    9   10 2
  17    9   17 1
  18   10   11 1
  19   11   12 1
  20   12   13 1
  21   12   30 1
  22   12   31 1
  23   13   14 1
  24   13   15 2
  25   14   16 1
  26   16   32 1
  27   16   33 1
  28   16   34 1
  29   17   18 ar
  30   17   19 ar
  31   18   22 ar
  32   18   35 1
  33   19   20 ar
  34   19   36 1
  35   20   21 ar
  36   20   37 1
  37   21   22 ar
  38   21   23 1
  39   22   38 1
  40   24   25 1
  41   25   39 1
  42   25   40 1
  43   25   41 1

#	End of record

