#	Name: ASD01913613
#	Creating user name:	WinNT
#	Creation time:	15. 06. 2019 20:01

#	Modifying user name:	WinNT
#	Modification time:	15. 06. 2019 20:01

#	Program:	/corina/corina34_cracker 3.40 0067  02.08.2006

@<TRIPOS>MOLECULE
ASD01913613
  52   56    0    0    0
SMALL
NO_CHARGES


@<TRIPOS>ATOM
   1 C1             0.0890     1.4553     0.3120 C.ar    
   2 C2             0.0485    -0.0127     0.1330 C.2     
   3 N3            -1.0124    -0.8155     0.3819 N.pl3   
   4 N4            -0.6022    -2.1226     0.0736 N.2     
   5 C5             0.6466    -2.0460    -0.3331 C.2     
   6 N6             1.0362    -0.7667    -0.3015 N.2     
   7 C7             1.4852    -3.1923    -0.7633 C.ar    
   8 C8             2.7998    -2.9810    -1.1743 C.ar    
   9 C9             3.5761    -4.0496    -1.5730 C.ar    
  10 C10            3.0504    -5.3315    -1.5651 C.ar    
  11 C11            1.7437    -5.5461    -1.1576 C.ar    
  12 C12            0.9622    -4.4838    -0.7519 C.ar    
  13 C13           -2.3283    -0.4024     0.8757 C.3     
  14 C14           -3.2439    -0.1410    -0.2924 C.2     
  15 N15           -4.5146     0.2533    -0.0776 N.am    
  16 O16           -2.8371    -0.2855    -1.4259 O.2     
  17 C17           -5.3394     0.4867    -1.2520 C.3     
  18 C18            1.3141     2.1125     0.4306 C.ar    
  19 C19            1.3465     3.4812     0.5968 C.ar    
  20 C20            0.1649     4.2038     0.6461 C.ar    
  21 C21           -1.0546     3.5557     0.5292 C.ar    
  22 C22           -1.0975     2.1880     0.3569 C.ar    
  23 F23            3.8139    -6.3751    -1.9563 F       
  24 F24            0.2019     5.5444     0.8090 F       
  25 C25           -6.3983    -0.6259    -1.3663 C.3     
  26 C26           -7.4527    -0.3436    -0.3104 C.2     
  27 C27           -7.2414    -0.3857     1.0175 C.2     
  28 C28           -5.9144    -0.7229     1.6748 C.3     
  29 C29           -4.9337     0.3999     1.3068 C.3     
  30 N30           -8.7394    -0.0131    -0.5186 N.pl3   
  31 N31           -9.3426     0.1546     0.7377 N.2     
  32 C32           -8.4380    -0.0703     1.6602 C.2     
  33 H33            3.2102    -1.9820    -1.1811 H       
  34 H34            4.5949    -3.8866    -1.8921 H       
  35 H35            1.3376    -6.5468    -1.1533 H       
  36 H36           -0.0563    -4.6519    -0.4344 H       
  37 H37           -2.7483    -1.1939     1.4965 H       
  38 H38           -2.2253     0.5073     1.4672 H       
  39 H39           -5.8359     1.4528    -1.1609 H       
  40 H40           -4.7117     0.4837    -2.1431 H       
  41 H41            2.2354     1.5502     0.3927 H       
  42 H42            2.2942     3.9908     0.6891 H       
  43 H43           -1.9726     4.1232     0.5686 H       
  44 H44           -2.0483     1.6839     0.2655 H       
  45 H45           -6.8507    -0.6086    -2.3578 H       
  46 H46           -5.9388    -1.5972    -1.1829 H       
  47 H47           -6.0369    -0.7711     2.7568 H       
  48 H48           -5.5445    -1.6766     1.2984 H       
  49 H49           -4.0607     0.3473     1.9573 H       
  50 H50           -5.4231     1.3656     1.4334 H       
  51 H51           -9.1721     0.0908    -1.3805 H       
  52 H52           -8.5925    -0.0206     2.7279 H       
@<TRIPOS>BOND
   1    1    2 1
   2    1   18 ar
   3    1   22 ar
   4    2    3 1
   5    2    6 2
   6    3    4 1
   7    3   13 1
   8    4    5 2
   9    5    6 1
  10    5    7 1
  11    7    8 ar
  12    7   12 ar
  13    8    9 ar
  14    8   33 1
  15    9   10 ar
  16    9   34 1
  17   10   11 ar
  18   10   23 1
  19   11   12 ar
  20   11   35 1
  21   12   36 1
  22   13   14 1
  23   13   37 1
  24   13   38 1
  25   14   15 am
  26   14   16 2
  27   15   17 1
  28   15   29 1
  29   17   25 1
  30   17   39 1
  31   17   40 1
  32   18   19 ar
  33   18   41 1
  34   19   20 ar
  35   19   42 1
  36   20   21 ar
  37   20   24 1
  38   21   22 ar
  39   21   43 1
  40   22   44 1
  41   25   26 1
  42   25   45 1
  43   25   46 1
  44   26   27 2
  45   26   30 1
  46   27   28 1
  47   27   32 1
  48   28   29 1
  49   28   47 1
  50   28   48 1
  51   29   49 1
  52   29   50 1
  53   30   31 1
  54   30   51 1
  55   31   32 2
  56   32   52 1

#	End of record

