#	Name: ASD03091388
#	Creating user name:	WinNT
#	Creation time:	15. 06. 2019 20:30

#	Modifying user name:	WinNT
#	Modification time:	15. 06. 2019 20:30

#	Program:	/corina/corina34_cracker 3.40 0067  02.08.2006

@<TRIPOS>MOLECULE
ASD03091388
  53   57    0    0    0
SMALL
NO_CHARGES


@<TRIPOS>ATOM
   1 N1            -0.3336     1.9426    -0.1582 N.am    
   2 C2            -0.1379     0.5881    -0.1454 C.2     
   3 N3            -1.1195    -0.2744    -0.0952 N.2     
   4 C4            -2.4082     0.1206    -0.0518 C.ar    
   5 C5            -2.7058     1.5024    -0.0607 C.ar    
   6 C6            -1.5859     2.4540    -0.1122 C.2     
   7 O7            -1.7782     3.6560    -0.1218 O.2     
   8 C8            -3.4541    -0.8058     0.0012 C.ar    
   9 C9            -4.7476    -0.3702     0.0438 C.ar    
  10 C10           -5.0452     0.9910     0.0348 C.ar    
  11 C11           -4.0311     1.9299    -0.0163 C.ar    
  12 O12           -6.3411     1.3990     0.0770 O.3     
  13 C13           -6.5756     2.8030     0.2026 C.3     
  14 C14           -7.8414     3.0403     1.0357 C.3     
  15 C15            0.8195     2.8444    -0.2159 C.3     
  16 C16            1.2480     0.0762    -0.1908 C.ar    
  17 C17            2.1827     0.4987     0.7559 C.ar    
  18 C18            1.6262    -0.8362    -1.1771 C.ar    
  19 C19            2.9213    -1.3101    -1.2138 C.ar    
  20 C20            3.8443    -0.8832    -0.2756 C.ar    
  21 C21            3.4745     0.0170     0.7079 C.ar    
  22 C22           -6.7760     3.4160    -1.1864 C.3     
  23 N23           -8.1099     4.0270    -1.2615 N.3     
  24 C24           -9.1633     3.0191    -1.0779 C.3     
  25 C25           -9.0305     2.3941     0.3137 C.3     
  26 C26           -8.0887     4.5512     1.1302 C.3     
  27 C27           -8.2477     5.1157    -0.2843 C.3     
  28 C28            1.2511     3.0278    -1.6723 C.3     
  29 H29           -3.2393    -1.8642     0.0081 H       
  30 H30           -5.5511    -1.0906     0.0847 H       
  31 H31           -4.2643     2.9844    -0.0232 H       
  32 H32           -5.7227     3.2734     0.6919 H       
  33 H33           -7.7186     2.6175     2.0328 H       
  34 H34            0.5461     3.8114     0.2064 H       
  35 H35            1.6433     2.4179     0.3562 H       
  36 H36            1.8953     1.2013     1.5241 H       
  37 H37            0.9066    -1.1708    -1.9096 H       
  38 H38            3.2153    -2.0161    -1.9764 H       
  39 H39            4.8569    -1.2575    -0.3086 H       
  40 H40            4.1999     0.3465     1.4370 H       
  41 H41           -6.0166     4.1782    -1.3606 H       
  42 H42           -6.6899     2.6367    -1.9437 H       
  43 H43          -10.1404     3.4930    -1.1720 H       
  44 H44           -9.0605     2.2432    -1.8364 H       
  45 H45           -8.8606     1.3217     0.2177 H       
  46 H46           -9.9433     2.5716     0.8824 H       
  47 H47           -8.9978     4.7374     1.7020 H       
  48 H48           -7.2416     5.0299     1.6214 H       
  49 H49           -7.4780     5.8662    -0.4650 H       
  50 H50           -9.2322     5.5725    -0.3851 H       
  51 H51            0.4273     3.4543    -2.2445 H       
  52 H52            2.1091     3.6987    -1.7153 H       
  53 H53            1.5246     2.0608    -2.0947 H       
@<TRIPOS>BOND
   1    1    2 1
   2    1   15 1
   3    1    6 am
   4    2    3 2
   5    2   16 1
   6    3    4 1
   7    4    5 ar
   8    4    8 ar
   9    5    6 1
  10    5   11 ar
  11    6    7 2
  12    8    9 ar
  13    8   29 1
  14    9   10 ar
  15    9   30 1
  16   10   11 ar
  17   10   12 1
  18   11   31 1
  19   12   13 1
  20   13   14 1
  21   13   22 1
  22   13   32 1
  23   14   26 1
  24   14   25 1
  25   14   33 1
  26   15   28 1
  27   15   34 1
  28   15   35 1
  29   16   17 ar
  30   16   18 ar
  31   17   21 ar
  32   17   36 1
  33   18   19 ar
  34   18   37 1
  35   19   20 ar
  36   19   38 1
  37   20   21 ar
  38   20   39 1
  39   21   40 1
  40   22   23 1
  41   22   41 1
  42   22   42 1
  43   23   24 1
  44   23   27 1
  45   24   25 1
  46   24   43 1
  47   24   44 1
  48   25   45 1
  49   25   46 1
  50   26   27 1
  51   26   47 1
  52   26   48 1
  53   27   49 1
  54   27   50 1
  55   28   51 1
  56   28   52 1
  57   28   53 1

#	End of record

