#	Name: ASD01120137
#	Creating user name:	WinNT
#	Creation time:	15. 06. 2019 18:59

#	Modifying user name:	WinNT
#	Modification time:	15. 06. 2019 18:59

#	Program:	/corina/corina34_cracker 3.40 0067  02.08.2006

@<TRIPOS>MOLECULE
ASD01120137
  44   46    0    0    0
SMALL
NO_CHARGES


@<TRIPOS>ATOM
   1 C1            -0.0325     1.3700    -0.0242 C.ar    
   2 C2            -0.0196    -0.0281     0.0770 C.ar    
   3 C3            -1.1950    -0.7353     0.2012 C.ar    
   4 C4            -2.4144    -0.0478     0.2268 C.ar    
   5 C5            -2.4195     1.3655     0.1245 C.ar    
   6 C6            -1.2106     2.0610     0.0039 C.ar    
   7 N7            -3.5871    -0.6899     0.3456 N.ar    
   8 C8            -4.7138    -0.0185     0.3662 C.ar    
   9 N9            -4.7674     1.3007     0.2734 N.ar    
  10 C10           -3.6674     2.0325     0.1530 C.ar    
  11 C11           -5.1752     5.2827     0.5567 C.ar    
  12 C12           -4.9822     4.0392    -0.0332 C.ar    
  13 C13           -6.0238     3.4249    -0.7123 C.ar    
  14 C14           -7.2622     4.0588    -0.8002 C.ar    
  15 C15           -7.4459     5.3077    -0.2043 C.ar    
  16 C16           -6.4032     5.9112     0.4689 C.ar    
  17 O17            1.1409     2.0462    -0.1459 O.3     
  18 C18            1.0622     3.4696    -0.2449 C.3     
  19 C19            2.4716     4.0506    -0.3743 C.3     
  20 O20            1.1650    -0.6926     0.0519 O.3     
  21 C21            1.1124    -2.1166     0.1590 C.3     
  22 C22            2.5324    -2.6844     0.1122 C.3     
  23 N23           -3.7382     3.4079     0.0575 N.pl3   
  24 C24           -8.3423     3.4310    -1.5001 C.1     
  25 C25           -9.2278     2.9164    -2.0739 C.1     
  26 H26           -1.1762    -1.8124     0.2778 H       
  27 H27           -1.2098     3.1382    -0.0743 H       
  28 H28           -5.6393    -0.5667     0.4630 H       
  29 H29           -4.3643     5.7577     1.0890 H       
  30 H30           -5.8758     2.4588    -1.1717 H       
  31 H31           -8.4039     5.8019    -0.2704 H       
  32 H32           -6.5473     6.8777     0.9290 H       
  33 H33            0.4754     3.7409    -1.1225 H       
  34 H34            0.5848     3.8702     0.6494 H       
  35 H35            2.4116     5.1363    -0.4498 H       
  36 H36            3.0585     3.7793     0.5033 H       
  37 H37            2.9490     3.6501    -1.2686 H       
  38 H38            0.6416    -2.3929     1.1025 H       
  39 H39            0.5315    -2.5221    -0.6694 H       
  40 H40            3.0032    -2.4081    -0.8312 H       
  41 H41            3.1133    -2.2789     0.9406 H       
  42 H42            2.4922    -3.7706     0.1939 H       
  43 H43           -2.9247     3.9363     0.0533 H       
  44 H44          -10.0198     2.4561    -2.5871 H       
@<TRIPOS>BOND
   1    1    2 ar
   2    1   17 1
   3    1    6 ar
   4    2    3 ar
   5    2   20 1
   6    3    4 ar
   7    3   26 1
   8    4    5 ar
   9    4    7 ar
  10    5    6 ar
  11    5   10 ar
  12    6   27 1
  13    7    8 ar
  14    8    9 ar
  15    8   28 1
  16    9   10 ar
  17   10   23 1
  18   11   12 ar
  19   11   16 ar
  20   11   29 1
  21   12   13 ar
  22   12   23 1
  23   13   14 ar
  24   13   30 1
  25   14   15 ar
  26   14   24 1
  27   15   16 ar
  28   15   31 1
  29   16   32 1
  30   17   18 1
  31   18   19 1
  32   18   33 1
  33   18   34 1
  34   19   35 1
  35   19   36 1
  36   19   37 1
  37   20   21 1
  38   21   22 1
  39   21   38 1
  40   21   39 1
  41   22   40 1
  42   22   41 1
  43   22   42 1
  44   23   43 1
  45   24   25 3
  46   25   44 1

#	End of record

