#	Name: ASD05313133
#	Creating user name:	WinNT
#	Creation time:	15. 06. 2019 20:58

#	Modifying user name:	WinNT
#	Modification time:	15. 06. 2019 20:58

#	Program:	/corina/corina34_cracker 3.40 0067  02.08.2006

@<TRIPOS>MOLECULE
ASD05313133
  40   43    0    0    0
SMALL
NO_CHARGES


@<TRIPOS>ATOM
   1 C1            -0.3780     0.2351     2.8312 C.ar    
   2 C2            -0.5522    -0.4461     1.6203 C.ar    
   3 C3             0.3862    -0.2913     0.6002 C.ar    
   4 C4             1.4787     0.5301     0.7890 C.ar    
   5 C5             1.6477     1.2012     1.9874 C.ar    
   6 C6             0.7241     1.0561     3.0054 C.ar    
   7 O7            -1.2888     0.0958     3.8290 O.3     
   8 C8            -3.0158    -3.0042     0.9263 C.2     
   9 C9            -3.4614    -4.3647     0.4462 C.3     
  10 N10           -1.7175    -2.5855     0.9104 N.pl3   
  11 N11           -2.3106    -4.9734    -0.2476 N.am    
  12 C12           -0.9823    -4.8498     0.3714 C.3     
  13 C13           -0.5840    -3.3699     0.4241 C.3     
  14 N14           -2.9781    -1.0405     1.7157 N.2     
  15 N15           -3.7336    -2.0411     1.4177 N.2     
  16 C16           -1.7246    -1.3251     1.4243 C.2     
  17 C17           -2.4721    -5.6251    -1.4163 C.2     
  18 O18           -1.5014    -6.0342    -2.0233 O.2     
  19 C19           -3.8278    -5.8422    -1.9592 C.ar    
  20 C20           -4.0875    -5.6082    -3.3129 C.ar    
  21 C21           -5.3566    -5.8135    -3.8142 C.ar    
  22 C22           -6.3720    -6.2507    -2.9781 C.ar    
  23 C23           -6.1195    -6.4837    -1.6346 C.ar    
  24 C24           -4.8545    -6.2877    -1.1238 C.ar    
  25 F25           -7.6128    -6.4501    -3.4740 F       
  26 Cl26          -2.8163    -5.0601    -4.3605 Cl      
  27 H27            0.2581    -0.8140    -0.3362 H       
  28 H28            2.2049     0.6493    -0.0014 H       
  29 H29            2.5058     1.8418     2.1279 H       
  30 H30            0.8618     1.5834     3.9378 H       
  31 H31           -1.0970    -0.6304     4.4381 H       
  32 H32           -3.7528    -4.9821     1.2959 H       
  33 H33           -4.2989    -4.2600    -0.2436 H       
  34 H34           -1.0131    -5.2548     1.3829 H       
  35 H35           -0.2522    -5.4022    -0.2203 H       
  36 H36           -0.3080    -3.0309    -0.5744 H       
  37 H37            0.2623    -3.2443     1.0994 H       
  38 H38           -5.5591    -5.6329    -4.8595 H       
  39 H39           -6.9149    -6.8236    -0.9880 H       
  40 H40           -4.6585    -6.4744    -0.0782 H       
@<TRIPOS>BOND
   1    1    2 ar
   2    1    6 ar
   3    1    7 1
   4    2    3 ar
   5    2   16 1
   6    3    4 ar
   7    3   27 1
   8    4    5 ar
   9    4   28 1
  10    5    6 ar
  11    5   29 1
  12    6   30 1
  13    7   31 1
  14    8    9 1
  15    8   10 1
  16    8   15 2
  17    9   11 1
  18    9   32 1
  19    9   33 1
  20   10   13 1
  21   10   16 1
  22   11   12 1
  23   11   17 am
  24   12   13 1
  25   12   34 1
  26   12   35 1
  27   13   36 1
  28   13   37 1
  29   14   15 1
  30   14   16 2
  31   17   18 2
  32   17   19 1
  33   19   20 ar
  34   19   24 ar
  35   20   21 ar
  36   20   26 1
  37   21   22 ar
  38   21   38 1
  39   22   23 ar
  40   22   25 1
  41   23   24 ar
  42   23   39 1
  43   24   40 1

#	End of record

