#	Name: ASD01914640
#	Creating user name:	WinNT
#	Creation time:	15. 06. 2019 20:03

#	Modifying user name:	WinNT
#	Modification time:	15. 06. 2019 20:03

#	Program:	/corina/corina34_cracker 3.40 0067  02.08.2006

@<TRIPOS>MOLECULE
ASD01914640
  55   60    0    0    0
SMALL
NO_CHARGES


@<TRIPOS>ATOM
   1 O1            -0.0143     1.2064     0.0087 O.3     
   2 N2             0.0021    -0.0041     0.0020 N.2     
   3 C3             1.2199    -0.4889    -0.0122 C.ar    
   4 C4             2.1080     0.6941    -0.0143 C.ar    
   5 C5             1.2122     1.7595    -0.0001 C.2     
   6 C6             3.4963     0.5067    -0.0286 C.ar    
   7 C7             3.9991    -0.7561    -0.0402 C.ar    
   8 C8             3.1655    -1.8788    -0.0387 C.ar    
   9 C9             1.8139    -1.7703    -0.0244 C.ar    
  10 C10            1.5390     3.1934     0.0038 C.2     
  11 O11            2.7012     3.5524    -0.0057 O.2     
  12 N12            0.5507     4.1097     0.0179 N.am    
  13 C13            0.8762     5.5381     0.0217 C.3     
  14 C14           -0.4169     6.3557     0.0383 C.3     
  15 C15           -0.0770     7.8475     0.0423 C.3     
  16 C16            0.7274     8.1907    -1.2131 C.3     
  17 C17            2.0204     7.3730    -1.2297 C.3     
  18 C18            2.8491     7.7039     0.0132 C.3     
  19 C19            2.0447     7.3607     1.2686 C.3     
  20 C20            1.7048     5.8690     1.2646 C.3     
  21 C21            0.7516     8.1784     1.2852 C.3     
  22 C22            1.6805     5.8812    -1.2337 C.3     
  23 N23           -1.3151     8.6304     0.0582 N.am    
  24 C24           -1.2608     9.9771     0.0643 C.2     
  25 O25           -0.1849    10.5418     0.0566 O.2     
  26 C26           -2.5131    10.7690     0.0803 C.ar    
  27 C27           -2.4503    12.1606     0.0865 C.ar    
  28 C28           -3.6300    12.8876     0.1011 C.ar    
  29 C29           -4.8321    12.1972     0.1089 C.ar    
  30 C30           -4.8197    10.8117     0.1020 C.ar    
  31 N31           -3.6852    10.1465     0.0831 N.ar    
  32 H32            4.1610     1.3580    -0.0307 H       
  33 H33            5.0700    -0.8959    -0.0512 H       
  34 H34            3.6117    -2.8622    -0.0490 H       
  35 H35            1.1966    -2.6565    -0.0229 H       
  36 H36           -0.3761     3.8234     0.0255 H       
  37 H37           -1.0072     6.1200    -0.8472 H       
  38 H38           -0.9899     6.1113     0.9327 H       
  39 H39            0.1370     7.9549    -2.0986 H       
  40 H40            0.9695     9.2534    -1.2103 H       
  41 H41            2.5935     7.6175    -2.1241 H       
  42 H42            3.7703     7.1214     0.0014 H       
  43 H43            3.0912     8.7667     0.0160 H       
  44 H44            2.6350     7.5965     2.1541 H       
  45 H45            1.1318     5.6245     2.1590 H       
  46 H46            2.6260     5.2865     1.2528 H       
  47 H47            0.9938     9.2412     1.2881 H       
  48 H48            0.1786     7.9339     2.1796 H       
  49 H49            2.6017     5.2987    -1.2455 H       
  50 H50            1.0902     5.6455    -2.1192 H       
  51 H51           -2.1740     8.1796     0.0643 H       
  52 H52           -1.4957    12.6658     0.0804 H       
  53 H53           -3.6133    13.9675     0.1065 H       
  54 H54           -5.7692    12.7341     0.1206 H       
  55 H55           -5.7544    10.2707     0.1081 H       
@<TRIPOS>BOND
   1    1    2 1
   2    1    5 1
   3    2    3 2
   4    3    4 ar
   5    3    9 ar
   6    4    5 2
   7    4    6 ar
   8    5   10 1
   9    6    7 ar
  10    6   32 1
  11    7    8 ar
  12    7   33 1
  13    8    9 ar
  14    8   34 1
  15    9   35 1
  16   10   11 2
  17   10   12 am
  18   12   13 1
  19   12   36 1
  20   13   14 1
  21   13   20 1
  22   13   22 1
  23   14   15 1
  24   14   37 1
  25   14   38 1
  26   15   16 1
  27   15   21 1
  28   15   23 1
  29   16   17 1
  30   16   39 1
  31   16   40 1
  32   17   18 1
  33   17   22 1
  34   17   41 1
  35   18   19 1
  36   18   42 1
  37   18   43 1
  38   19   20 1
  39   19   21 1
  40   19   44 1
  41   20   45 1
  42   20   46 1
  43   21   47 1
  44   21   48 1
  45   22   49 1
  46   22   50 1
  47   23   24 am
  48   23   51 1
  49   24   25 2
  50   24   26 1
  51   26   27 ar
  52   26   31 ar
  53   27   28 ar
  54   27   52 1
  55   28   29 ar
  56   28   53 1
  57   29   30 ar
  58   29   54 1
  59   30   31 ar
  60   30   55 1

#	End of record

