#	Name: ASD01911301
#	Creating user name:	WinNT
#	Creation time:	15. 06. 2019 19:57

#	Modifying user name:	WinNT
#	Modification time:	15. 06. 2019 19:57

#	Program:	/corina/corina34_cracker 3.40 0067  02.08.2006

@<TRIPOS>MOLECULE
ASD01911301
  32   34    0    0    0
SMALL
NO_CHARGES


@<TRIPOS>ATOM
   1 C1             0.2989     1.1703     0.1855 C.ar    
   2 C2             0.0830    -0.1755    -0.0974 C.ar    
   3 C3             1.1352    -0.9928    -0.4846 C.ar    
   4 C4             2.4134    -0.4690    -0.5917 C.ar    
   5 C5             2.6213     0.8930    -0.3100 C.ar    
   6 C6             1.5527     1.7035     0.0817 C.ar    
   7 O7             3.4437    -1.2666    -0.9574 O.3     
   8 C8             4.6090    -0.6657    -1.5219 C.3     
   9 C9             5.1091     0.4481    -0.5905 C.3     
  10 C10            3.9774     1.4488    -0.4391 C.2     
  11 O11            4.1808     2.6449    -0.4250 O.2     
  12 O12           -1.1674    -0.6927     0.0068 O.3     
  13 C13           -1.4292    -1.4463     1.0929 C.2     
  14 C14           -2.7299    -2.1351     1.2178 C.ar    
  15 O15           -0.5956    -1.5591     1.9692 O.2     
  16 C16           -3.0045    -2.9168     2.3418 C.ar    
  17 C17           -4.2212    -3.5573     2.4520 C.ar    
  18 C18           -5.1683    -3.4271     1.4516 C.ar    
  19 C19           -4.9026    -2.6545     0.3349 C.ar    
  20 C20           -3.6926    -2.0030     0.2150 C.ar    
  21 H21           -0.5288     1.7966     0.4840 H       
  22 H22            0.9583    -2.0358    -0.7018 H       
  23 H23            1.7170     2.7481     0.3013 H       
  24 H24            5.3873    -1.4199    -1.6376 H       
  25 H25            4.3644    -0.2426    -2.4961 H       
  26 H26            5.3677     0.0302     0.3825 H       
  27 H27            5.9797     0.9358    -1.0292 H       
  28 H28           -2.2659    -3.0199     3.1230 H       
  29 H29           -4.4349    -4.1622     3.3208 H       
  30 H30           -6.1191    -3.9310     1.5428 H       
  31 H31           -5.6460    -2.5576    -0.4425 H       
  32 H32           -3.4866    -1.4000    -0.6570 H       
@<TRIPOS>BOND
   1    1    2 ar
   2    1    6 ar
   3    1   21 1
   4    2    3 ar
   5    2   12 1
   6    3    4 ar
   7    3   22 1
   8    4    5 ar
   9    4    7 1
  10    5    6 ar
  11    5   10 1
  12    6   23 1
  13    7    8 1
  14    8    9 1
  15    8   24 1
  16    8   25 1
  17    9   10 1
  18    9   26 1
  19    9   27 1
  20   10   11 2
  21   12   13 1
  22   13   14 1
  23   13   15 2
  24   14   16 ar
  25   14   20 ar
  26   16   17 ar
  27   16   28 1
  28   17   18 ar
  29   17   29 1
  30   18   19 ar
  31   18   30 1
  32   19   20 ar
  33   19   31 1
  34   20   32 1

#	End of record

