#	Name: ASD03731643
#	Creating user name:	WinNT
#	Creation time:	15. 06. 2019 20:46

#	Modifying user name:	WinNT
#	Modification time:	15. 06. 2019 20:46

#	Program:	/corina/corina34_cracker 3.40 0067  02.08.2006

@<TRIPOS>MOLECULE
ASD03731643
  39   40    0    0    0
SMALL
NO_CHARGES


@<TRIPOS>ATOM
   1 C1            -0.0179     1.4703     0.0101 C.2     
   2 C2             0.0021    -0.0041     0.0020 C.ar    
   3 C3             1.2225    -0.6896    -0.0133 C.ar    
   4 C4             1.2359    -2.0699    -0.0209 C.ar    
   5 C5             0.0415    -2.7777    -0.0133 C.ar    
   6 C6            -1.1746    -2.0995     0.0014 C.ar    
   7 C7            -1.1978    -0.7217     0.0154 C.ar    
   8 O8             1.0268     2.0925     0.0035 O.2     
   9 N9            -1.1941     2.1282     0.0193 N.am    
  10 S10           -1.2166     3.7840     0.0284 S.o2    
  11 O11           -2.5980     4.1156     0.0625 O.2     
  12 O12           -0.3511     4.1404     1.0975 O.2     
  13 C13           -0.4880     4.2554    -1.5646 C.3     
  14 F14           -2.3337    -2.7935     0.0078 F       
  15 F15            2.3851    -0.0015    -0.0211 F       
  16 O16            0.0593    -4.1350    -0.0209 O.3     
  17 C17            1.2673    -4.7571    -0.0357 C.ar    
  18 C18            1.8966    -5.0818     1.1576 C.ar    
  19 C19            3.1243    -5.7146     1.1396 C.ar    
  20 C20            3.7264    -6.0241    -0.0660 C.ar    
  21 C21            3.1015    -5.7017    -1.2565 C.ar    
  22 C22            1.8710    -5.0739    -1.2442 C.ar    
  23 C23            1.1879    -4.7279    -2.5422 C.3     
  24 C24            1.2414    -4.7439     2.4720 C.3     
  25 H25            2.1768    -2.6000    -0.0331 H       
  26 H26           -2.1416    -0.1970     0.0321 H       
  27 H27           -2.0275     1.6318     0.0205 H       
  28 H28           -1.0900     3.8447    -2.3752 H       
  29 H29           -0.4628     5.3421    -1.6453 H       
  30 H30            0.5266     3.8625    -1.6305 H       
  31 H31            3.6145    -5.9675     2.0681 H       
  32 H32            4.6866    -6.5183    -0.0778 H       
  33 H33            3.5740    -5.9442    -2.1969 H       
  34 H34            1.4940    -3.7310    -2.8594 H       
  35 H35            1.4682    -5.4541    -3.3052 H       
  36 H36            0.1073    -4.7484    -2.4007 H       
  37 H37            0.6123    -5.5757     2.7888 H       
  38 H38            2.0089    -4.5616     3.2242 H       
  39 H39            0.6292    -3.8499     2.3535 H       
@<TRIPOS>BOND
   1    1    2 1
   2    1    8 2
   3    1    9 am
   4    2    3 ar
   5    2    7 ar
   6    3    4 ar
   7    3   15 1
   8    4    5 ar
   9    4   25 1
  10    5    6 ar
  11    5   16 1
  12    6    7 ar
  13    6   14 1
  14    7   26 1
  15    9   10 am
  16    9   27 1
  17   10   11 2
  18   10   12 2
  19   10   13 1
  20   13   28 1
  21   13   29 1
  22   13   30 1
  23   16   17 1
  24   17   18 ar
  25   17   22 ar
  26   18   19 ar
  27   18   24 1
  28   19   20 ar
  29   19   31 1
  30   20   21 ar
  31   20   32 1
  32   21   22 ar
  33   21   33 1
  34   22   23 1
  35   23   34 1
  36   23   35 1
  37   23   36 1
  38   24   37 1
  39   24   38 1
  40   24   39 1

#	End of record

