#	Name: ASD03092959
#	Creating user name:	WinNT
#	Creation time:	15. 06. 2019 20:33

#	Modifying user name:	WinNT
#	Modification time:	15. 06. 2019 20:33

#	Program:	/corina/corina34_cracker 3.40 0067  02.08.2006

@<TRIPOS>MOLECULE
ASD03092959
  41   43    0    0    0
SMALL
NO_CHARGES


@<TRIPOS>ATOM
   1 F1             0.0637    -0.0082     0.0128 F       
   2 C2             0.0406     1.3426     0.0186 C.ar    
   3 C3            -1.1698     2.0147     0.0349 C.ar    
   4 C4            -1.1922     3.3965     0.0408 C.ar    
   5 C5            -0.0067     4.1077     0.0304 C.ar    
   6 C6            -0.0325     5.6144     0.0373 C.3     
   7 N7            -0.0251     6.0966     1.4206 N.pl3   
   8 C8            -0.0455     7.4551     1.6796 C.ar    
   9 N9             0.0325     8.3272     0.6831 N.ar    
  10 N10            0.0165     9.5944     0.8813 N.ar    
  11 C11           -0.0784    10.1255     2.0844 C.ar    
  12 C12           -0.1654     9.3101     3.2008 C.ar    
  13 C13           -0.1551     7.9239     3.0021 C.ar    
  14 C14           -0.2500     6.9874     4.1402 C.2     
  15 O15           -0.3433     5.7922     3.9378 O.2     
  16 N16           -0.2332     7.4577     5.4032 N.am    
  17 C17           -0.4170     6.5818     6.4781 C.ar    
  18 C18            0.0843     5.2836     6.4255 C.ar    
  19 C19           -0.1227     4.4536     7.5152 C.ar    
  20 C20           -0.8143     4.9367     8.6102 C.ar    
  21 N21           -1.2765     6.1718     8.6290 N.ar    
  22 C22           -1.0972     6.9958     7.6163 C.ar    
  23 C23           -1.0437     4.0395     9.7991 C.3     
  24 F24            0.0183     4.1773    10.6992 F       
  25 F25           -2.2395     4.3984    10.4303 F       
  26 F26           -1.1230     2.7098     9.3714 F       
  27 C27            1.2024     3.4376     0.0141 C.ar    
  28 C28            1.2273     2.0559     0.0140 C.ar    
  29 H29           -2.0960     1.4594     0.0426 H       
  30 H30           -2.1362     3.9210     0.0531 H       
  31 H31            0.8452     5.9952    -0.4849 H       
  32 H32           -0.9344     5.9647    -0.4648 H       
  33 H33           -0.0059     5.4631     2.1550 H       
  34 H34           -0.0878    11.1993     2.1999 H       
  35 H35           -0.2428     9.7302     4.1927 H       
  36 H36           -0.0936     8.4035     5.5666 H       
  37 H37            0.6208     4.9325     5.5564 H       
  38 H38            0.2516     3.4406     7.5091 H       
  39 H39           -1.4865     8.0018     7.6702 H       
  40 H40            2.1279     3.9942     0.0057 H       
  41 H41            2.1721     1.5326     0.0059 H       
@<TRIPOS>BOND
   1    1    2 1
   2    2   28 ar
   3    2    3 ar
   4    3    4 ar
   5    3   29 1
   6    4    5 ar
   7    4   30 1
   8    5    6 1
   9    5   27 ar
  10    6    7 1
  11    6   31 1
  12    6   32 1
  13    7    8 1
  14    7   33 1
  15    8   13 ar
  16    8    9 ar
  17    9   10 ar
  18   10   11 ar
  19   11   12 ar
  20   11   34 1
  21   12   13 ar
  22   12   35 1
  23   13   14 1
  24   14   15 2
  25   14   16 am
  26   16   17 1
  27   16   36 1
  28   17   22 ar
  29   17   18 ar
  30   18   19 ar
  31   18   37 1
  32   19   20 ar
  33   19   38 1
  34   20   21 ar
  35   20   23 1
  36   21   22 ar
  37   22   39 1
  38   23   24 1
  39   23   25 1
  40   23   26 1
  41   27   28 ar
  42   27   40 1
  43   28   41 1

#	End of record

