#	Name: ASD03331056
#	Creating user name:	WinNT
#	Creation time:	15. 06. 2019 20:38

#	Modifying user name:	WinNT
#	Modification time:	15. 06. 2019 20:38

#	Program:	/corina/corina34_cracker 3.40 0067  02.08.2006

@<TRIPOS>MOLECULE
ASD03331056
  64   66    0    0    0
SMALL
NO_CHARGES


@<TRIPOS>ATOM
   1 N1             0.0559     1.1534    -0.7752 N.pl3   
   2 C2             0.0609    -0.1791    -0.5049 C.2     
   3 C3             1.2822    -1.0105    -0.2112 C.3     
   4 N4             2.1149    -0.3110     0.7796 N.3     
   5 C5             3.0666     0.5921     0.1296 C.3     
   6 C6             2.4697     1.1921    -1.1402 C.3     
   7 C7             1.2340     2.0251    -0.7888 C.3     
   8 C8            -1.2373     1.5168    -1.0149 C.2     
   9 N9            -2.0016     0.4584    -0.8808 N.2     
  10 C10           -1.2312    -0.6050    -0.5633 C.2     
  11 C11           -1.7043    -1.9798    -0.3235 C.2     
  12 O12           -0.9091    -2.8565    -0.0436 O.2     
  13 N13           -3.0182    -2.2658    -0.4144 N.am    
  14 C14            2.8086    -1.2668     1.6532 C.3     
  15 C15           -4.7932    -3.8481    -0.8989 C.2     
  16 C16           -3.4886    -3.6326    -0.1760 C.3     
  17 C17           -3.6958    -3.8461     1.3248 C.3     
  18 C18           -4.7923    -2.9048     1.8273 C.3     
  19 O19           -5.4284    -2.8962    -1.3005 O.2     
  20 C20           -4.1116    -5.2961     1.5810 C.3     
  21 C21           -2.3908    -3.5511     2.0669 C.3     
  22 N22           -5.2541    -5.0987    -1.0991 N.am    
  23 C23           -6.5601    -5.3058    -1.7297 C.3     
  24 C24           -6.8419    -6.8058    -1.8382 C.3     
  25 O25           -6.9618    -7.3639    -0.5282 O.3     
  26 C26           -1.7004     2.8767    -1.3667 C.ar    
  27 C27           -2.6002     3.0612    -2.4199 C.ar    
  28 C28           -3.0290     4.3349    -2.7428 C.ar    
  29 C29           -2.5694     5.4245    -2.0259 C.ar    
  30 C30           -1.6775     5.2479    -0.9817 C.ar    
  31 C31           -1.2454     3.9802    -0.6450 C.ar    
  32 F32           -3.0494     1.9973    -3.1211 F       
  33 Cl33          -1.1060     6.6228    -0.0892 Cl      
  34 H34            0.9772    -1.9781     0.1873 H       
  35 H35            1.8527    -1.1566    -1.1285 H       
  36 H36            3.3250     1.3962     0.8185 H       
  37 H37            3.9692     0.0372    -0.1265 H       
  38 H38            3.2108     1.8292    -1.6230 H       
  39 H39            2.1844     0.3899    -1.8207 H       
  40 H40            1.0988     2.8089    -1.5341 H       
  41 H41            1.3658     2.4751     0.1952 H       
  42 H42           -3.6524    -1.5666    -0.6376 H       
  43 H43            3.3946    -1.9558     1.0449 H       
  44 H44            3.4706    -0.7264     2.3298 H       
  45 H45            2.0754    -1.8274     2.2330 H       
  46 H46           -2.7474    -4.3415    -0.5449 H       
  47 H47           -5.7221    -3.1150     1.2986 H       
  48 H48           -4.9400    -3.0570     2.8965 H       
  49 H49           -4.4962    -1.8718     1.6448 H       
  50 H50           -3.3205    -5.9659     1.2438 H       
  51 H51           -4.2814    -5.4423     2.6477 H       
  52 H52           -5.0291    -5.5131     1.0340 H       
  53 H53           -2.0946    -2.5181     1.8844 H       
  54 H54           -2.5384    -3.7032     3.1361 H       
  55 H55           -1.6097    -4.2217     1.7089 H       
  56 H56           -4.7211    -5.8616    -0.8257 H       
  57 H57           -7.3345    -4.8335    -1.1252 H       
  58 H58           -6.5568    -4.8638    -2.7260 H       
  59 H59           -7.7711    -6.9622    -2.3862 H       
  60 H60           -6.0221    -7.2922    -2.3667 H       
  61 H61           -7.1412    -8.3141    -0.5204 H       
  62 H62           -3.7241     4.4795    -3.5566 H       
  63 H63           -2.9074     6.4178    -2.2819 H       
  64 H64           -0.5535     3.8439     0.1730 H       
@<TRIPOS>BOND
   1    1    2 1
   2    1    7 1
   3    1    8 1
   4    2    3 1
   5    2   10 2
   6    3    4 1
   7    3   34 1
   8    3   35 1
   9    4    5 1
  10    4   14 1
  11    5    6 1
  12    5   36 1
  13    5   37 1
  14    6    7 1
  15    6   38 1
  16    6   39 1
  17    7   40 1
  18    7   41 1
  19    8    9 2
  20    8   26 1
  21    9   10 1
  22   10   11 1
  23   11   12 2
  24   11   13 am
  25   13   16 1
  26   13   42 1
  27   14   43 1
  28   14   44 1
  29   14   45 1
  30   15   19 2
  31   15   22 am
  32   15   16 1
  33   16   17 1
  34   16   46 1
  35   17   18 1
  36   17   20 1
  37   17   21 1
  38   18   47 1
  39   18   48 1
  40   18   49 1
  41   20   50 1
  42   20   51 1
  43   20   52 1
  44   21   53 1
  45   21   54 1
  46   21   55 1
  47   22   23 1
  48   22   56 1
  49   23   24 1
  50   23   57 1
  51   23   58 1
  52   24   25 1
  53   24   59 1
  54   24   60 1
  55   25   61 1
  56   26   27 ar
  57   26   31 ar
  58   27   28 ar
  59   27   32 1
  60   28   29 ar
  61   28   62 1
  62   29   30 ar
  63   29   63 1
  64   30   31 ar
  65   30   33 1
  66   31   64 1

#	End of record

