#	Name: ASD03740092
#	Creating user name:	WinNT
#	Creation time:	15. 06. 2019 20:46

#	Modifying user name:	WinNT
#	Modification time:	15. 06. 2019 20:46

#	Program:	/corina/corina34_cracker 3.40 0067  02.08.2006

@<TRIPOS>MOLECULE
ASD03740092
  59   62    0    0    0
SMALL
NO_CHARGES


@<TRIPOS>ATOM
   1 C1            -0.3403     0.8559     0.2680 C.ar    
   2 C2            -0.4027    -0.5328     0.2828 C.ar    
   3 C3            -1.6065    -1.1788     0.2816 C.ar    
   4 C4            -2.7885    -0.4428     0.2653 C.ar    
   5 C5            -2.7275     0.9640     0.2503 C.ar    
   6 C6            -1.4839     1.6032     0.2575 C.ar    
   7 N7            -4.1170    -0.7814     0.2603 N.pl3   
   8 N8            -4.8881     0.3853     0.2424 N.2     
   9 C9            -4.1122     1.4348     0.2360 C.2     
  10 O10           -4.5181     2.7320     0.2195 O.3     
  11 C11           -4.6449    -2.1480     0.2713 C.3     
  12 C12           -5.9269     2.9709     0.2075 C.3     
  13 C13           -6.1884     4.4783     0.1897 C.3     
  14 C14           -7.6969     4.7341     0.1769 C.3     
  15 N15           -7.9480     6.1814     0.1598 N.3     
  16 C16           -9.3352     6.4703    -0.2255 C.3     
  17 C17           -4.8351    -2.6015     1.6958 C.ar    
  18 C18           -6.0392    -2.3780     2.3371 C.ar    
  19 C19           -6.2143    -2.7937     3.6436 C.ar    
  20 C20           -5.1841    -3.4336     4.3096 C.ar    
  21 C21           -3.9793    -3.6569     3.6673 C.ar    
  22 C22           -3.8073    -3.2458     2.3589 C.ar    
  23 Cl23          -5.4031    -3.9555     5.9507 Cl      
  24 Cl24           1.2047     1.6476     0.2700 Cl      
  25 C25           -7.6197     6.7878     1.4563 C.3     
  26 C26           -7.7538     8.3091     1.3580 C.3     
  27 C27           -9.1875     8.6652     0.9552 C.3     
  28 C28           -9.5205     7.9821    -0.3741 C.3     
  29 C29           -9.6429     5.7954    -1.5374 C.2     
  30 O30           -8.7595     5.6001    -2.3381 O.2     
  31 O31          -10.8985     5.4112    -1.8162 O.3     
  32 C32          -11.1214     4.7673    -3.0984 C.3     
  33 H33            0.5114    -1.1078     0.2951 H       
  34 H34           -1.6413    -2.2582     0.2928 H       
  35 H35           -1.4277     2.6817     0.2465 H       
  36 H36           -5.6026    -2.1717    -0.2485 H       
  37 H37           -3.9423    -2.8129    -0.2309 H       
  38 H38           -6.3651     2.5156    -0.6807 H       
  39 H39           -6.3770     2.5346     1.0991 H       
  40 H40           -5.7503     4.9336     1.0778 H       
  41 H41           -5.7383     4.9147    -0.7020 H       
  42 H42           -8.1350     4.2788    -0.7113 H       
  43 H43           -8.1470     4.2977     1.0685 H       
  44 H44          -10.0112     6.0955     0.5431 H       
  45 H45           -6.8432    -1.8782     1.8172 H       
  46 H46           -7.1549    -2.6188     4.1446 H       
  47 H47           -3.1748    -4.1563     4.1866 H       
  48 H48           -2.8668    -3.4200     1.8574 H       
  49 H49           -8.3037     6.4113     2.2169 H       
  50 H50           -6.5963     6.5302     1.7290 H       
  51 H51           -7.5252     8.7578     2.3247 H       
  52 H52           -7.0601     8.6877     0.6072 H       
  53 H53           -9.8782     8.3209     1.7248 H       
  54 H54           -9.2762     9.7457     0.8418 H       
  55 H55           -8.8547     8.3556    -1.1520 H       
  56 H56          -10.5542     8.1972    -0.6448 H       
  57 H57          -12.1756     4.5083    -3.1965 H       
  58 H58          -10.8384     5.4483    -3.9010 H       
  59 H59          -10.5175     3.8620    -3.1602 H       
@<TRIPOS>BOND
   1    1    2 ar
   2    1   24 1
   3    1    6 ar
   4    2    3 ar
   5    2   33 1
   6    3    4 ar
   7    3   34 1
   8    4    5 ar
   9    4    7 1
  10    5    6 ar
  11    5    9 1
  12    6   35 1
  13    7    8 1
  14    7   11 1
  15    8    9 2
  16    9   10 1
  17   10   12 1
  18   11   17 1
  19   11   36 1
  20   11   37 1
  21   12   13 1
  22   12   38 1
  23   12   39 1
  24   13   14 1
  25   13   40 1
  26   13   41 1
  27   14   15 1
  28   14   42 1
  29   14   43 1
  30   15   16 1
  31   15   25 1
  32   16   29 1
  33   16   28 1
  34   16   44 1
  35   17   18 ar
  36   17   22 ar
  37   18   19 ar
  38   18   45 1
  39   19   20 ar
  40   19   46 1
  41   20   21 ar
  42   20   23 1
  43   21   22 ar
  44   21   47 1
  45   22   48 1
  46   25   26 1
  47   25   49 1
  48   25   50 1
  49   26   27 1
  50   26   51 1
  51   26   52 1
  52   27   28 1
  53   27   53 1
  54   27   54 1
  55   28   55 1
  56   28   56 1
  57   29   30 2
  58   29   31 1
  59   31   32 1
  60   32   57 1
  61   32   58 1
  62   32   59 1

#	End of record

