#	Name: ASD00840660
#	Creating user name:	WinNT
#	Creation time:	15. 06. 2019 18:39

#	Modifying user name:	WinNT
#	Modification time:	15. 06. 2019 18:39

#	Program:	/corina/corina34_cracker 3.40 0067  02.08.2006

@<TRIPOS>MOLECULE
ASD00840660
  94   99    0    0    0
SMALL
NO_CHARGES


@<TRIPOS>ATOM
   1 N1             1.0667     1.4584    -0.7464 N.ar    
   2 C2             1.3273     0.1664    -0.8552 C.ar    
   3 C3             1.2457    -0.6679     0.2525 C.ar    
   4 C4             0.8873    -0.1295     1.4758 C.ar    
   5 C5             0.6218     1.2312     1.5481 C.ar    
   6 C6             0.7225     2.0006     0.4064 C.ar    
   7 C7             1.5431    -2.1396     0.1236 C.3     
   8 C8             1.2604    -2.8544     1.4279 C.2     
   9 C9             0.7233    -2.7535    -1.0130 C.3     
  10 C10           -0.7388    -2.4634    -0.7913 C.2     
  11 N11           -1.6629    -2.9847    -1.6224 N.am    
  12 O12           -1.0840    -1.7607     0.1350 O.2     
  13 C13           -3.0803    -2.6221    -1.4879 C.3     
  14 C14           -3.9086    -3.9055    -1.3707 C.3     
  15 C15           -3.6030    -4.8156    -2.5626 C.3     
  16 C16           -2.1204    -5.1948    -2.5501 C.3     
  17 C17           -1.2711    -3.9217    -2.6842 C.3     
  18 N18           -4.4203    -6.0329    -2.4709 N.3     
  19 C19           -4.2417    -6.8778    -3.6600 C.3     
  20 C20           -5.0457    -8.1690    -3.4904 C.3     
  21 N21           -6.4635    -7.8377    -3.2913 N.3     
  22 C22           -6.6420    -6.9928    -2.1023 C.3     
  23 C23           -5.8381    -5.7015    -2.2719 C.3     
  24 C24           -7.2807    -9.0550    -3.1997 C.3     
  25 O25            0.1881    -2.9307     1.9894 O.2     
  26 N26            2.4195    -3.3889     1.8463 N.am    
  27 C27            3.0208    -2.3638    -0.1039 C.ar    
  28 C28            3.4713    -3.1217     0.9743 C.ar    
  29 C29            3.8783    -1.9735    -1.1010 C.ar    
  30 C30            5.2280    -2.3387    -1.0409 C.ar    
  31 C31            5.6879    -3.1005     0.0399 C.ar    
  32 C32            4.8160    -3.4876     1.0349 C.ar    
  33 F33            6.9890    -3.4582     0.1072 F       
  34 C34            2.2854    -5.9545     2.8332 C.ar    
  35 C35            1.0318    -6.3543     2.3941 C.ar    
  36 C36            3.3048    -6.8805     2.9444 C.ar    
  37 C37            3.0765    -8.2043     2.6181 C.ar    
  38 C38            1.8276    -8.6054     2.1801 C.ar    
  39 C39            0.8050    -7.6837     2.0676 C.ar    
  40 H40            1.6517    -9.6401     1.9257 H       
  41 O41            0.0273    -5.4456     2.2843 O.3     
  42 C42           -1.2371    -5.9284     1.8257 C.3     
  43 C43           -8.7256    -8.6755    -2.8693 C.3     
  44 C44           -7.2415    -9.7974    -4.5369 C.3     
  45 C45            6.1312    -1.9367    -2.0769 C.1     
  46 N46            6.8477    -1.6179    -2.8987 N.1     
  47 S47            2.5794    -4.2660     3.2418 S.o2    
  48 O48            3.9469    -4.1763     3.6177 O.2     
  49 O49            1.5122    -3.8669     4.0910 O.2     
  50 O50            1.6773    -0.3493    -2.0604 O.3     
  51 C51            2.1707    -0.1850    -4.4205 C.3     
  52 C52            1.6356     0.5358    -3.1816 C.3     
  53 H53            0.8153    -0.7537     2.3542 H       
  54 H54            0.3391     1.6830     2.4875 H       
  55 H55            0.5174     3.0597     0.4573 H       
  56 H56            1.0393    -2.3223    -1.9629 H       
  57 H57            0.8807    -3.8319    -1.0332 H       
  58 H58           -3.2188    -2.0149    -0.5933 H       
  59 H59           -3.3988    -2.0605    -2.3661 H       
  60 H60           -3.6527    -4.4204    -0.4447 H       
  61 H61           -4.9694    -3.6548    -1.3670 H       
  62 H62           -3.8359    -4.2910    -3.4892 H       
  63 H63           -1.8813    -5.6976    -1.6130 H       
  64 H64           -1.9084    -5.8618    -3.3858 H       
  65 H65           -1.4433    -3.4687    -3.6605 H       
  66 H66           -0.2160    -4.1733    -2.5768 H       
  67 H67           -4.5941    -6.3433    -4.5422 H       
  68 H68           -3.1856    -7.1199    -3.7788 H       
  69 H69           -4.9379    -8.7845    -4.3835 H       
  70 H70           -4.6752    -8.7169    -2.6240 H       
  71 H71           -7.6981    -6.7507    -1.9834 H       
  72 H72           -6.2897    -7.5273    -1.2201 H       
  73 H73           -5.9458    -5.0861    -1.3788 H       
  74 H74           -6.2086    -5.1537    -3.1383 H       
  75 H75           -6.8857    -9.6996    -2.4145 H       
  76 H76            3.5127    -1.3862    -1.9304 H       
  77 H77            5.1761    -4.0754     1.8664 H       
  78 H78            4.2810    -6.5697     3.2863 H       
  79 H79            3.8748    -8.9264     2.7050 H       
  80 H80           -0.1703    -7.9975     1.7262 H       
  81 H81           -1.1223    -6.3597     0.8313 H       
  82 H82           -1.6055    -6.6907     2.5121 H       
  83 H83           -1.9477    -5.1030     1.7840 H       
  84 H84           -9.3320    -9.5787    -2.8013 H       
  85 H85           -8.7536    -8.1466    -1.9167 H       
  86 H86           -9.1207    -8.0309    -3.6545 H       
  87 H87           -6.2121   -10.0678    -4.7723 H       
  88 H88           -7.8479   -10.7006    -4.4690 H       
  89 H89           -7.6365    -9.1529    -5.3221 H       
  90 H90            1.5052    -1.0092    -4.6772 H       
  91 H91            2.2209     0.5148    -5.2547 H       
  92 H92            3.1674    -0.5742    -4.2123 H       
  93 H93            0.6067     0.8487    -3.3594 H       
  94 H94            2.2514     1.4114    -2.9763 H       
@<TRIPOS>BOND
   1    1    2 ar
   2    1    6 ar
   3    2    3 ar
   4    2   50 1
   5    3    4 ar
   6    3    7 1
   7    4    5 ar
   8    4   53 1
   9    5    6 ar
  10    5   54 1
  11    6   55 1
  12    7    8 1
  13    7    9 1
  14    7   27 1
  15    8   25 2
  16    8   26 am
  17    9   10 1
  18    9   56 1
  19    9   57 1
  20   10   11 am
  21   10   12 2
  22   11   13 1
  23   11   17 1
  24   13   14 1
  25   13   58 1
  26   13   59 1
  27   14   15 1
  28   14   60 1
  29   14   61 1
  30   15   16 1
  31   15   18 1
  32   15   62 1
  33   16   17 1
  34   16   63 1
  35   16   64 1
  36   17   65 1
  37   17   66 1
  38   18   19 1
  39   18   23 1
  40   19   20 1
  41   19   67 1
  42   19   68 1
  43   20   21 1
  44   20   69 1
  45   20   70 1
  46   21   22 1
  47   21   24 1
  48   22   23 1
  49   22   71 1
  50   22   72 1
  51   23   73 1
  52   23   74 1
  53   24   43 1
  54   24   44 1
  55   24   75 1
  56   26   47 am
  57   26   28 1
  58   27   28 ar
  59   27   29 ar
  60   28   32 ar
  61   29   30 ar
  62   29   76 1
  63   30   31 ar
  64   30   45 1
  65   31   32 ar
  66   31   33 1
  67   32   77 1
  68   34   35 ar
  69   34   36 ar
  70   34   47 1
  71   35   41 1
  72   35   39 ar
  73   36   37 ar
  74   36   78 1
  75   37   38 ar
  76   37   79 1
  77   38   39 ar
  78   38   40 1
  79   39   80 1
  80   41   42 1
  81   42   81 1
  82   42   82 1
  83   42   83 1
  84   43   84 1
  85   43   85 1
  86   43   86 1
  87   44   87 1
  88   44   88 1
  89   44   89 1
  90   45   46 3
  91   47   48 2
  92   47   49 2
  93   50   52 1
  94   51   52 1
  95   51   90 1
  96   51   91 1
  97   51   92 1
  98   52   93 1
  99   52   94 1

#	End of record

