#	Name: ASD01915422
#	Creating user name:	WinNT
#	Creation time:	15. 06. 2019 20:05

#	Modifying user name:	WinNT
#	Modification time:	15. 06. 2019 20:05

#	Program:	/corina/corina34_cracker 3.40 0067  02.08.2006

@<TRIPOS>MOLECULE
ASD01915422
  44   47    0    0    0
SMALL
NO_CHARGES


@<TRIPOS>ATOM
   1 C1            -0.2243     1.4608    -1.1265 C.ar    
   2 C2            -0.2357     0.0857    -1.2806 C.ar    
   3 C3             0.9614    -0.6060    -1.1444 C.ar    
   4 C4             2.1179     0.0948    -0.8614 C.ar    
   5 N5             2.0960     1.4067    -0.7202 N.ar    
   6 C6             0.9762     2.0994    -0.8426 C.ar    
   7 O7             1.0001     3.4474    -0.6892 O.3     
   8 C8             2.2651     4.0450    -0.3984 C.3     
   9 C9             2.0970     5.5365    -0.2633 C.2     
  10 C10            0.8952     6.2456    -0.3927 C.2     
  11 N11            3.0495     6.3999     0.0019 N.2     
  12 C12            1.2323     7.5540    -0.1928 C.2     
  13 C13            0.4247     8.7832    -0.1936 C.2     
  14 N14            2.5861     7.5869     0.0598 N.pl3   
  15 C15            3.2730     8.8499     0.3556 C.3     
  16 C16            2.5574     9.9929    -0.3631 C.3     
  17 N17            1.1093     9.9526    -0.1732 N.am    
  18 O18           -0.7912     8.7520    -0.2120 O.2     
  19 C19            3.2514     9.1021     1.8645 C.3     
  20 Cl20           1.0035    -2.3318    -1.3272 Cl      
  21 C21            0.4145    11.1477     0.0392 C.ar    
  22 C22           -0.1790    11.3965     1.2709 C.ar    
  23 C23           -0.8678    12.5778     1.4862 C.ar    
  24 C24           -0.9695    13.5169     0.4767 C.ar    
  25 C25           -0.3761    13.2745    -0.7635 C.ar    
  26 C26            0.3231    12.0859    -0.9771 C.ar    
  27 F27           -1.4424    12.8135     2.6860 F       
  28 C28           -0.4800    14.2449    -1.8114 C.1     
  29 N29           -0.5624    15.0148    -2.6427 N.1     
  30 H30           -1.1359     2.0305    -1.2300 H       
  31 H31           -1.1541    -0.4379    -1.5013 H       
  32 H32            3.0514    -0.4377    -0.7541 H       
  33 H33            2.6537     3.6372     0.5348 H       
  34 H34            2.9632     3.8298    -1.2074 H       
  35 H35           -0.0849     5.8445    -0.6048 H       
  36 H36            4.3052     8.7925     0.0102 H       
  37 H37            2.9362    10.9411     0.0184 H       
  38 H38            2.7766     9.9312    -1.4290 H       
  39 H39            3.7585     8.2845     2.3768 H       
  40 H40            3.7616    10.0401     2.0834 H       
  41 H41            2.2187     9.1613     2.2082 H       
  42 H42           -0.1030    10.6658     2.0626 H       
  43 H43           -1.5081    14.4373     0.6473 H       
  44 H44            0.7881    11.8955    -1.9332 H       
@<TRIPOS>BOND
   1    1    2 ar
   2    1    6 ar
   3    1   30 1
   4    2    3 ar
   5    2   31 1
   6    3    4 ar
   7    3   20 1
   8    4    5 ar
   9    4   32 1
  10    5    6 ar
  11    6    7 1
  12    7    8 1
  13    8    9 1
  14    8   33 1
  15    8   34 1
  16    9   11 2
  17    9   10 1
  18   10   12 2
  19   10   35 1
  20   11   14 1
  21   12   14 1
  22   12   13 1
  23   13   17 am
  24   13   18 2
  25   14   15 1
  26   15   16 1
  27   15   19 1
  28   15   36 1
  29   16   17 1
  30   16   37 1
  31   16   38 1
  32   17   21 1
  33   19   39 1
  34   19   40 1
  35   19   41 1
  36   21   22 ar
  37   21   26 ar
  38   22   23 ar
  39   22   42 1
  40   23   24 ar
  41   23   27 1
  42   24   25 ar
  43   24   43 1
  44   25   26 ar
  45   25   28 1
  46   26   44 1
  47   28   29 3

#	End of record

