#	Name: ASD03180052
#	Creating user name:	WinNT
#	Creation time:	15. 06. 2019 20:33

#	Modifying user name:	WinNT
#	Modification time:	15. 06. 2019 20:33

#	Program:	/corina/corina34_cracker 3.40 0067  02.08.2006

@<TRIPOS>MOLECULE
ASD03180052
  32   34    0    0    0
SMALL
NO_CHARGES


@<TRIPOS>ATOM
   1 O1             1.3690     3.2391    -4.0165 O.2     
   2 N2             1.0583     3.7994    -2.9806 N.pl3   
   3 O3             1.8943     3.9859    -2.1146 O.2     
   4 C4            -0.3345     4.2595    -2.7765 C.ar    
   5 C5            -0.6831     4.9006    -1.6013 C.ar    
   6 C6            -1.9793     5.3319    -1.4058 C.ar    
   7 C7            -2.9381     5.1203    -2.3953 C.ar    
   8 C8            -2.5810     4.4737    -3.5774 C.ar    
   9 C9            -1.2805     4.0514    -3.7641 C.ar    
  10 C10           -4.3329     5.5810    -2.1909 C.2     
  11 C11           -5.2939     5.3959    -3.1124 C.2     
  12 S12           -6.7942     6.0808    -2.4924 S.3     
  13 C13           -5.9668     6.5638    -1.0150 C.2     
  14 N14           -6.5552     7.2223     0.0533 N.pl3   
  15 C15           -7.8785     7.6657    -0.0414 C.ar    
  16 C16           -8.9266     6.7611     0.0794 C.ar    
  17 Cl17          -8.5956     5.0784     0.3488 Cl      
  18 C18          -10.2329     7.2030    -0.0147 C.ar    
  19 C19          -10.4975     8.5432    -0.2288 C.ar    
  20 C20           -9.4573     9.4463    -0.3496 C.ar    
  21 C21           -8.1485     9.0128    -0.2508 C.ar    
  22 Cl22          -6.8435    10.1485    -0.3954 Cl      
  23 N23           -4.7226     6.2023    -1.0790 N.2     
  24 H24            0.0605     5.0637    -0.8353 H       
  25 H25           -2.2505     5.8321    -0.4878 H       
  26 H26           -3.3199     4.3068    -4.3472 H       
  27 H27           -1.0017     3.5543    -4.6814 H       
  28 H28           -5.1678     4.9110    -4.0692 H       
  29 H29           -6.0493     7.3757     0.8666 H       
  30 H30          -11.0479     6.5005     0.0787 H       
  31 H31          -11.5192     8.8855    -0.3023 H       
  32 H32           -9.6678    10.4923    -0.5168 H       
@<TRIPOS>BOND
   1    1    2 2
   2    2    3 2
   3    2    4 1
   4    4    9 ar
   5    4    5 ar
   6    5    6 ar
   7    5   24 1
   8    6    7 ar
   9    6   25 1
  10    7    8 ar
  11    7   10 1
  12    8    9 ar
  13    8   26 1
  14    9   27 1
  15   10   23 1
  16   10   11 2
  17   11   12 1
  18   11   28 1
  19   12   13 1
  20   13   14 1
  21   13   23 2
  22   14   15 1
  23   14   29 1
  24   15   21 ar
  25   15   16 ar
  26   16   17 1
  27   16   18 ar
  28   18   19 ar
  29   18   30 1
  30   19   20 ar
  31   19   31 1
  32   20   21 ar
  33   20   32 1
  34   21   22 1

#	End of record

