#	Name: ASD05170022
#	Creating user name:	WinNT
#	Creation time:	15. 06. 2019 20:57

#	Modifying user name:	WinNT
#	Modification time:	15. 06. 2019 20:57

#	Program:	/corina/corina34_cracker 3.40 0067  02.08.2006

@<TRIPOS>MOLECULE
ASD05170022
  49   52    0    0    0
SMALL
NO_CHARGES


@<TRIPOS>ATOM
   1 C1             0.6333     0.8771     0.0016 C.3     
   2 O2             0.4015    -0.5286    -0.1100 O.3     
   3 C3            -0.8884    -0.9505    -0.0219 C.ar    
   4 C4            -1.9081    -0.0286     0.1623 C.ar    
   5 C5            -3.2183    -0.4562     0.2515 C.ar    
   6 C6            -3.5146    -1.8096     0.1567 C.ar    
   7 C7            -2.4930    -2.7318    -0.0277 C.ar    
   8 C8            -1.1839    -2.3020    -0.1219 C.ar    
   9 N9            -4.8418    -2.2437     0.2473 N.pl3   
  10 C10           -5.9192    -1.2704     0.4423 C.3     
  11 C11           -5.1539    -3.6716     0.1473 C.3     
  12 C12           -5.1225    -4.2902     1.5211 C.2     
  13 C13           -6.2268    -4.4905     2.3603 C.2     
  14 C14           -5.7161    -5.0723     3.4856 C.2     
  15 C15           -6.3578    -5.5306     4.7271 C.2     
  16 O16           -7.5672    -5.6031     4.8352 O.2     
  17 N17           -5.5278    -5.8681     5.7437 N.am    
  18 C18           -4.0989    -5.5779     5.6889 C.3     
  19 C19           -3.5024    -5.8304     4.3050 C.3     
  20 N20           -4.3597    -5.2096     3.2876 N.pl3   
  21 N21           -4.0567    -4.7415     2.1405 N.2     
  22 C22           -6.0527    -6.5087     6.8711 C.ar    
  23 C23           -6.0764    -5.8535     8.0955 C.ar    
  24 C24           -6.5956    -6.4880     9.2068 C.ar    
  25 C25           -7.0920    -7.7755     9.1013 C.ar    
  26 Cl26          -7.7444    -8.5699    10.5001 Cl      
  27 C27           -7.0695    -8.4306     7.8825 C.ar    
  28 C28           -6.5562    -7.7988     6.7668 C.ar    
  29 H29            1.7012     1.0773    -0.0856 H       
  30 H30            0.0999     1.3976    -0.7938 H       
  31 H31            0.2757     1.2286     0.9694 H       
  32 H32           -1.6775     1.0239     0.2364 H       
  33 H33           -4.0123     0.2617     0.3952 H       
  34 H34           -2.7225    -3.7846    -0.1012 H       
  35 H35           -0.3896    -3.0187    -0.2698 H       
  36 H36           -6.2865    -0.9357    -0.5278 H       
  37 H37           -6.7332    -1.7359     0.9982 H       
  38 H38           -5.5396    -0.4154     1.0018 H       
  39 H39           -6.1465    -3.7971    -0.2851 H       
  40 H40           -4.4161    -4.1611    -0.4885 H       
  41 H41           -7.2580    -4.2391     2.1607 H       
  42 H42           -3.9410    -4.5329     5.9555 H       
  43 H43           -3.5834    -6.2067     6.4149 H       
  44 H44           -2.5041    -5.3959     4.2542 H       
  45 H45           -3.4425    -6.9037     4.1247 H       
  46 H46           -5.6889    -4.8488     8.1785 H       
  47 H47           -6.6141    -5.9791    10.1592 H       
  48 H48           -7.4574    -9.4354     7.8028 H       
  49 H49           -6.5430    -8.3089     5.8150 H       
@<TRIPOS>BOND
   1    1    2 1
   2    1   29 1
   3    1   30 1
   4    1   31 1
   5    2    3 1
   6    3    8 ar
   7    3    4 ar
   8    4    5 ar
   9    4   32 1
  10    5    6 ar
  11    5   33 1
  12    6    7 ar
  13    6    9 1
  14    7    8 ar
  15    7   34 1
  16    8   35 1
  17    9   10 1
  18    9   11 1
  19   10   36 1
  20   10   37 1
  21   10   38 1
  22   11   12 1
  23   11   39 1
  24   11   40 1
  25   12   21 2
  26   12   13 1
  27   13   14 2
  28   13   41 1
  29   14   20 1
  30   14   15 1
  31   15   16 2
  32   15   17 am
  33   17   18 1
  34   17   22 1
  35   18   19 1
  36   18   42 1
  37   18   43 1
  38   19   20 1
  39   19   44 1
  40   19   45 1
  41   20   21 1
  42   22   28 ar
  43   22   23 ar
  44   23   24 ar
  45   23   46 1
  46   24   25 ar
  47   24   47 1
  48   25   26 1
  49   25   27 ar
  50   27   28 ar
  51   27   48 1
  52   28   49 1

#	End of record

