#	Name: ASD01900371
#	Creating user name:	WinNT
#	Creation time:	15. 06. 2019 19:51

#	Modifying user name:	WinNT
#	Modification time:	15. 06. 2019 19:51

#	Program:	/corina/corina34_cracker 3.40 0067  02.08.2006

@<TRIPOS>MOLECULE
ASD01900371
  25   27    0    0    0
SMALL
NO_CHARGES


@<TRIPOS>ATOM
   1 C1             0.0284     1.4034     0.4557 C.ar    
   2 C2             0.0595     0.0199     0.5721 C.ar    
   3 N3             1.1760    -0.6545     0.4164 N.ar    
   4 C4             2.3247    -0.0415     0.1406 C.ar    
   5 C5             2.3676     1.3596     0.0083 C.ar    
   6 C6             1.1915     2.0911     0.1705 C.ar    
   7 C7             3.6937    -0.5124    -0.0823 C.2     
   8 N8             4.4407     0.5331    -0.3192 N.2     
   9 N9             3.6654     1.6963    -0.2723 N.pl3   
  10 N10            4.1242    -1.8424    -0.0474 N.pl3   
  11 C11            5.4838    -2.1400    -0.1680 C.ar    
  12 C12            6.4471    -1.2170     0.2316 C.ar    
  13 C13            5.8947    -3.3636    -0.6830 C.ar    
  14 N14            7.1760    -3.6493    -0.7979 N.ar    
  15 C15            8.1139    -2.7967    -0.4339 C.ar    
  16 C16            7.7844    -1.5589     0.0925 C.ar    
  17 F17            8.7534    -0.6930     0.4617 F       
  18 H18           -0.9012     1.9383     0.5831 H       
  19 H19           -0.8531    -0.5126     0.7957 H       
  20 H20            1.1903     3.1669     0.0751 H       
  21 H21            3.9942     2.5976    -0.4159 H       
  22 H22            3.4788    -2.5584     0.0605 H       
  23 H23            6.1602    -0.2589     0.6393 H       
  24 H24            5.1560    -4.0883    -0.9921 H       
  25 H25            9.1532    -3.0691    -0.5442 H       
@<TRIPOS>BOND
   1    1    2 ar
   2    1    6 ar
   3    1   18 1
   4    2    3 ar
   5    2   19 1
   6    3    4 ar
   7    4    5 ar
   8    4    7 1
   9    5    6 ar
  10    5    9 1
  11    6   20 1
  12    7    8 2
  13    7   10 1
  14    8    9 1
  15    9   21 1
  16   10   11 1
  17   10   22 1
  18   11   12 ar
  19   11   13 ar
  20   12   16 ar
  21   12   23 1
  22   13   14 ar
  23   13   24 1
  24   14   15 ar
  25   15   16 ar
  26   15   25 1
  27   16   17 1

#	End of record

