#	Name: ASD01913510
#	Creating user name:	WinNT
#	Creation time:	15. 06. 2019 20:01

#	Modifying user name:	WinNT
#	Modification time:	15. 06. 2019 20:01

#	Program:	/corina/corina34_cracker 3.40 0067  02.08.2006

@<TRIPOS>MOLECULE
ASD01913510
  41   43    0    0    0
SMALL
NO_CHARGES


@<TRIPOS>ATOM
   1 C1            -0.3788     0.7121    -1.9329 C.ar    
   2 C2             0.0205     0.0156    -0.7946 C.ar    
   3 C3             1.3233    -0.4746    -0.7449 C.ar    
   4 N4             2.1280    -0.2626    -1.7729 N.ar    
   5 C5             1.7118     0.4016    -2.8325 C.ar    
   6 N6             0.4873     0.8813    -2.9180 N.ar    
   7 C7            -2.1264     0.4104     0.2513 C.ar    
   8 C8            -3.2729    -0.3715     0.1799 C.ar    
   9 N9            -4.4687     0.1829     0.1674 N.ar    
  10 C10           -4.6304     1.4898     0.2214 C.ar    
  11 C11           -3.5341     2.3406     0.2938 C.ar    
  12 C12           -2.2543     1.7953     0.3099 C.ar    
  13 N13           -3.7148     3.7265     0.3499 N.am    
  14 C14           -2.8747     4.4867     1.0799 C.2     
  15 N15           -0.8627    -0.1855     0.2698 N.pl3   
  16 C16           -3.1224     5.9373     1.2188 C.ar    
  17 O17           -1.9133     3.9793     1.6240 O.2     
  18 C18           -2.2543     6.7273     1.9741 C.ar    
  19 C19           -2.4904     8.0809     2.0998 C.ar    
  20 C20           -3.5849     8.6560     1.4798 C.ar    
  21 C21           -4.4506     7.8784     0.7287 C.ar    
  22 C22           -4.2223     6.5239     0.5905 C.ar    
  23 Cl23          -5.8219     8.6094    -0.0452 Cl      
  24 C24           -0.4634    -1.0212     1.4049 C.3     
  25 C25            0.2134    -0.1509     2.4658 C.3     
  26 H26           -1.3821     1.1041    -2.0118 H       
  27 H27            1.6713    -1.0194     0.1202 H       
  28 H28            2.3944     0.5573    -3.6549 H       
  29 H29           -3.1831    -1.4468     0.1338 H       
  30 H30           -5.6275     1.9046     0.2088 H       
  31 H31           -1.3825     2.4302     0.3660 H       
  32 H32           -4.4447     4.1405    -0.1367 H       
  33 H33           -1.3996     6.2798     2.4595 H       
  34 H34           -1.8191     8.6928     2.6841 H       
  35 H35           -3.7655     9.7159     1.5820 H       
  36 H36           -4.8977     5.9181     0.0046 H       
  37 H37           -1.3454    -1.4969     1.8339 H       
  38 H38            0.2334    -1.7872     1.0648 H       
  39 H39            0.5104    -0.7726     3.3104 H       
  40 H40            1.0954     0.3248     2.0369 H       
  41 H41           -0.4834     0.6152     2.8059 H       
@<TRIPOS>BOND
   1    1    2 ar
   2    1    6 ar
   3    1   26 1
   4    2    3 ar
   5    2   15 1
   6    3    4 ar
   7    3   27 1
   8    4    5 ar
   9    5    6 ar
  10    5   28 1
  11    7    8 ar
  12    7   12 ar
  13    7   15 1
  14    8    9 ar
  15    8   29 1
  16    9   10 ar
  17   10   11 ar
  18   10   30 1
  19   11   12 ar
  20   11   13 1
  21   12   31 1
  22   13   14 am
  23   13   32 1
  24   14   16 1
  25   14   17 2
  26   15   24 1
  27   16   18 ar
  28   16   22 ar
  29   18   19 ar
  30   18   33 1
  31   19   20 ar
  32   19   34 1
  33   20   21 ar
  34   20   35 1
  35   21   22 ar
  36   21   23 1
  37   22   36 1
  38   24   25 1
  39   24   37 1
  40   24   38 1
  41   25   39 1
  42   25   40 1
  43   25   41 1

#	End of record

