#	Name: ASD04910166
#	Creating user name:	WinNT
#	Creation time:	15. 06. 2019 20:55

#	Modifying user name:	WinNT
#	Modification time:	15. 06. 2019 20:55

#	Program:	/corina/corina34_cracker 3.40 0067  02.08.2006

@<TRIPOS>MOLECULE
ASD04910166
  30   31    0    0    0
SMALL
NO_CHARGES


@<TRIPOS>ATOM
   1 C1            -0.0156     1.3010     0.0092 C.2     
   2 N2             0.0021    -0.0041     0.0020 N.2     
   3 C3             1.2734    -0.4312    -0.0124 C.2     
   4 C4             2.0794     0.6475    -0.0143 C.2     
   5 N5             1.2660     1.7510    -0.0006 N.pl3   
   6 C6             1.7223    -1.8698    -0.0240 C.3     
   7 F7             0.6058    -2.7058    -0.1329 F       
   8 F8             2.5734    -2.0840    -1.1135 F       
   9 F9             2.4044    -2.1550     1.1637 F       
  10 C10            1.6790     3.0911     0.0019 C.ar    
  11 C11            1.4092     3.8999     1.0975 C.ar    
  12 C12            1.8177     5.2194     1.0973 C.ar    
  13 C13            2.4946     5.7348     0.0074 C.ar    
  14 C14            2.7648     4.9316    -1.0853 C.ar    
  15 C15            2.3634     3.6100    -1.0887 C.ar    
  16 N16            2.9306     7.1494     0.0101 N.pl3   
  17 O17            2.6929     7.8581     0.9718 O.2     
  18 O18            3.5270     7.6047    -0.9494 O.2     
  19 C19            2.6632     2.7337    -2.2775 C.3     
  20 C20            0.6710     3.3390     2.2855 C.3     
  21 H21           -0.9010     1.9195     0.0169 H       
  22 H22            3.1594     0.6440    -0.0246 H       
  23 H23            1.6078     5.8491     1.9492 H       
  24 H24            3.2937     5.3370    -1.9352 H       
  25 H25            1.8433     2.7986    -2.9927 H       
  26 H26            3.5861     3.0678    -2.7515 H       
  27 H27            2.7772     1.7009    -1.9480 H       
  28 H28            1.3869     2.9267     2.9966 H       
  29 H29            0.0984     4.1327     2.7653 H       
  30 H30           -0.0062     2.5518     1.9540 H       
@<TRIPOS>BOND
   1    1    2 2
   2    1    5 1
   3    1   21 1
   4    2    3 1
   5    3    4 2
   6    3    6 1
   7    4    5 1
   8    4   22 1
   9    5   10 1
  10    6    7 1
  11    6    8 1
  12    6    9 1
  13   10   11 ar
  14   10   15 ar
  15   11   12 ar
  16   11   20 1
  17   12   13 ar
  18   12   23 1
  19   13   14 ar
  20   13   16 1
  21   14   15 ar
  22   14   24 1
  23   15   19 1
  24   16   17 2
  25   16   18 2
  26   19   25 1
  27   19   26 1
  28   19   27 1
  29   20   28 1
  30   20   29 1
  31   20   30 1

#	End of record

