#	Name: ASD01814596
#	Creating user name:	WinNT
#	Creation time:	15. 06. 2019 19:32

#	Modifying user name:	WinNT
#	Modification time:	15. 06. 2019 19:32

#	Program:	/corina/corina34_cracker 3.40 0067  02.08.2006

@<TRIPOS>MOLECULE
ASD01814596
  60   64    0    0    0
SMALL
NO_CHARGES


@<TRIPOS>ATOM
   1 C1             0.2136     1.6686    -0.4246 C.2     
   2 C2             0.1739     0.2719    -0.3168 C.2     
   3 C3             1.3417    -0.4324    -0.2821 C.2     
   4 C4             2.5649     0.2547    -0.3552 C.2     
   5 N5             2.5742     1.6191    -0.4597 N.am    
   6 C6             1.4007     2.3124    -0.4937 C.2     
   7 C7             3.7665    -0.4668    -0.3197 C.2     
   8 C8             4.9601     0.1910    -0.3895 C.2     
   9 C9             4.9659     1.5941    -0.4975 C.2     
  10 C10            3.7409     2.2912    -0.5303 C.2     
  11 O11            3.7365     3.5070    -0.6241 O.2     
  12 C12            6.2334     2.3239    -0.5736 C.2     
  13 O13            6.2321     3.6689    -0.6770 O.3     
  14 O14            7.2873     1.7172    -0.5437 O.2     
  15 C15            3.7399    -1.9691    -0.2038 C.3     
  16 N16            3.8291    -2.5652    -1.5434 N.3     
  17 C17            4.1710    -3.9888    -1.4634 C.3     
  18 C18            4.1618    -4.6113    -2.8349 C.ar    
  19 C19            3.5377    -4.0055    -3.9047 C.ar    
  20 C20            2.8336    -2.6805    -3.7630 C.3     
  21 C21            2.5716    -2.3842    -2.2860 C.3     
  22 C22            4.8028    -5.8285    -3.0118 C.ar    
  23 C23            4.8171    -6.4362    -4.2514 C.ar    
  24 C24            4.1889    -5.8297    -5.3227 C.ar    
  25 C25            3.5513    -4.6175    -5.1486 C.ar    
  26 C26            5.5644    -4.1398    -0.8496 C.3     
  27 N27            6.5253    -3.3448    -1.6183 N.am    
  28 C28            7.8033    -3.2453    -1.2020 C.2     
  29 O29            8.1586    -3.8152    -0.1888 O.2     
  30 C30            8.7731    -2.4431    -1.9777 C.ar    
  31 C31           10.0973    -2.3379    -1.5493 C.ar    
  32 C32            8.3698    -1.7922    -3.1447 C.ar    
  33 C33            9.2798    -1.0456    -3.8641 C.ar    
  34 C34           10.5899    -0.9415    -3.4314 C.ar    
  35 C35           10.9973    -1.5881    -2.2780 C.ar    
  36 H36           -0.7070     2.2322    -0.4571 H       
  37 H37           -0.7739    -0.2429    -0.2611 H       
  38 H38            1.3261    -1.5091    -0.1989 H       
  39 H39            1.4194     3.3891    -0.5764 H       
  40 H40            5.8893    -0.3587    -0.3620 H       
  41 H41            7.0932     4.1064    -0.7242 H       
  42 H42            4.5848    -2.3020     0.3991 H       
  43 H43            2.8096    -2.2804     0.2712 H       
  44 H44            3.4433    -4.4986    -0.8320 H       
  45 H45            3.4571    -1.8923    -4.1851 H       
  46 H46            1.8851    -2.7156    -4.2989 H       
  47 H47            1.8176    -3.0717    -1.9027 H       
  48 H48            2.2250    -1.3568    -2.1745 H       
  49 H49            5.2937    -6.3034    -2.1753 H       
  50 H50            5.3186    -7.3835    -4.3837 H       
  51 H51            4.1970    -6.3026    -6.2937 H       
  52 H52            3.0602    -4.1437    -5.9857 H       
  53 H53            5.5466    -3.7899     0.1825 H       
  54 H54            5.8598    -5.1888    -0.8726 H       
  55 H55            6.2418    -2.8901    -2.4268 H       
  56 H56           10.4166    -2.8422    -0.6492 H       
  57 H57            7.3476    -1.8732    -3.4839 H       
  58 H58            8.9690    -0.5414    -4.7673 H       
  59 H59           11.2985    -0.3563    -3.9986 H       
  60 H60           12.0214    -1.5029    -1.9456 H       
@<TRIPOS>BOND
   1    1    2 1
   2    1    6 2
   3    1   36 1
   4    2    3 2
   5    2   37 1
   6    3    4 1
   7    3   38 1
   8    4    5 1
   9    4    7 2
  10    5    6 1
  11    5   10 am
  12    6   39 1
  13    7    8 1
  14    7   15 1
  15    8    9 2
  16    8   40 1
  17    9   10 1
  18    9   12 1
  19   10   11 2
  20   12   13 1
  21   12   14 2
  22   13   41 1
  23   15   16 1
  24   15   42 1
  25   15   43 1
  26   16   17 1
  27   16   21 1
  28   17   18 1
  29   17   26 1
  30   17   44 1
  31   18   19 ar
  32   18   22 ar
  33   19   20 1
  34   19   25 ar
  35   20   21 1
  36   20   45 1
  37   20   46 1
  38   21   47 1
  39   21   48 1
  40   22   23 ar
  41   22   49 1
  42   23   24 ar
  43   23   50 1
  44   24   25 ar
  45   24   51 1
  46   25   52 1
  47   26   27 1
  48   26   53 1
  49   26   54 1
  50   27   28 am
  51   27   55 1
  52   28   29 2
  53   28   30 1
  54   30   31 ar
  55   30   32 ar
  56   31   35 ar
  57   31   56 1
  58   32   33 ar
  59   32   57 1
  60   33   34 ar
  61   33   58 1
  62   34   35 ar
  63   34   59 1
  64   35   60 1

#	End of record

