#	Name: ASD01310007
#	Creating user name:	WinNT
#	Creation time:	15. 06. 2019 19:15

#	Modifying user name:	WinNT
#	Modification time:	15. 06. 2019 19:15

#	Program:	/corina/corina34_cracker 3.40 0067  02.08.2006

@<TRIPOS>MOLECULE
ASD01310007
  62   66    0    0    0
SMALL
NO_CHARGES


@<TRIPOS>ATOM
   1 N1            -0.0181     1.4829     0.0102 N.3     
   2 C2             0.0021    -0.0041     0.0020 C.3     
   3 C3            -1.4265    -0.4807     0.3097 C.3     
   4 C4            -2.3543    -0.0292    -0.8219 C.3     
   5 C5            -2.2208     1.4823    -1.0278 C.3     
   6 C6            -0.7384     1.8259    -1.2449 C.3     
   7 C7            -0.1720     0.8376    -2.2902 C.3     
   8 C8             0.3173    -0.3717    -1.4663 C.3     
   9 O9            -3.7278    -0.3503    -0.4775 O.3     
  10 C10           -4.5678    -0.6158    -1.4966 C.2     
  11 O11           -4.1639    -0.5800    -2.6416 O.2     
  12 C12           -9.1112    -1.8335    -3.1164 C.2     
  13 O13          -10.3970    -2.1384    -2.8551 O.3     
  14 O14           -8.7162    -1.7997    -4.2646 O.2     
  15 C15          -12.6918    -2.0088    -3.6611 C.3     
  16 C16          -11.2535    -2.4152    -3.9945 C.3     
  17 C17          -11.2010    -3.9106    -4.3198 C.3     
  18 C18          -12.2214    -4.2148    -5.4284 C.3     
  19 N19          -13.5717    -3.9272    -4.8755 N.3     
  20 C20          -13.6112    -2.4419    -4.8143 C.3     
  21 C21          -12.9540    -1.9895    -6.1385 C.3     
  22 C22          -12.0356    -3.1610    -6.5443 C.3     
  23 C23            1.3460     2.0280     0.0001 C.3     
  24 C24          -14.6240    -4.4459    -5.7596 C.3     
  25 C25           -5.9803    -0.9504    -1.2216 C.ar    
  26 C26           -6.4466    -0.9920     0.0949 C.ar    
  27 C27           -7.7664    -1.3051     0.3537 C.ar    
  28 C28           -8.6341    -1.5785    -0.6847 C.ar    
  29 C29           -8.1813    -1.5401    -2.0064 C.ar    
  30 C30           -6.8521    -1.2198    -2.2751 C.ar    
  31 H31            0.7305    -0.4106     0.7036 H       
  32 H32           -1.4409    -1.5683     0.3816 H       
  33 H33           -1.7614    -0.0463     1.2516 H       
  34 H34           -2.0818    -0.5460    -1.7421 H       
  35 H35           -2.7973     1.7840    -1.9023 H       
  36 H36           -2.5914     2.0051    -0.1460 H       
  37 H37           -0.5961     2.8682    -1.5304 H       
  38 H38           -0.9537     0.5315    -2.9854 H       
  39 H39            0.6599     1.2909    -2.8291 H       
  40 H40            1.3898    -0.5128    -1.6001 H       
  41 H41           -0.2238    -1.2723    -1.7564 H       
  42 H42          -13.0057    -2.4997    -2.7399 H       
  43 H43          -12.7462    -0.9272    -3.5373 H       
  44 H44          -10.9058    -1.8444    -4.8556 H       
  45 H45          -10.2005    -4.1749    -4.6621 H       
  46 H46          -11.4478    -4.4871    -3.4282 H       
  47 H47          -12.1281    -5.2337    -5.8040 H       
  48 H48          -14.6256    -2.0607    -4.6959 H       
  49 H49          -13.7142    -1.8217    -6.9014 H       
  50 H50          -12.3672    -1.0845    -5.9810 H       
  51 H51          -10.9972    -2.8320    -6.5862 H       
  52 H52          -12.3442    -3.5692    -7.5067 H       
  53 H53            1.8655     1.6904    -0.8967 H       
  54 H54            1.3022     3.1171     0.0064 H       
  55 H55            1.8825     1.6809     0.8831 H       
  56 H56          -14.5116    -5.5251    -5.8639 H       
  57 H57          -15.6011    -4.2221    -5.3316 H       
  58 H58          -14.5400    -3.9754    -6.7392 H       
  59 H59           -5.7731    -0.7791     0.9120 H       
  60 H60           -8.1214    -1.3365     1.3732 H       
  61 H61           -9.6649    -1.8230    -0.4752 H       
  62 H62           -6.4970    -1.1887    -3.2946 H       
@<TRIPOS>BOND
   1    1    2 1
   2    1   23 1
   3    1    6 1
   4    2    3 1
   5    2    8 1
   6    2   31 1
   7    3    4 1
   8    3   32 1
   9    3   33 1
  10    4    5 1
  11    4    9 1
  12    4   34 1
  13    5    6 1
  14    5   35 1
  15    5   36 1
  16    6    7 1
  17    6   37 1
  18    7    8 1
  19    7   38 1
  20    7   39 1
  21    8   40 1
  22    8   41 1
  23    9   10 1
  24   10   11 2
  25   10   25 1
  26   12   13 1
  27   12   14 2
  28   12   29 1
  29   13   16 1
  30   15   16 1
  31   15   20 1
  32   15   42 1
  33   15   43 1
  34   16   17 1
  35   16   44 1
  36   17   18 1
  37   17   45 1
  38   17   46 1
  39   18   22 1
  40   18   19 1
  41   18   47 1
  42   19   20 1
  43   19   24 1
  44   20   21 1
  45   20   48 1
  46   21   22 1
  47   21   49 1
  48   21   50 1
  49   22   51 1
  50   22   52 1
  51   23   53 1
  52   23   54 1
  53   23   55 1
  54   24   56 1
  55   24   57 1
  56   24   58 1
  57   25   26 ar
  58   25   30 ar
  59   26   27 ar
  60   26   59 1
  61   27   28 ar
  62   27   60 1
  63   28   29 ar
  64   28   61 1
  65   29   30 ar
  66   30   62 1

#	End of record

