#	Name: ASD01883264
#	Creating user name:	WinNT
#	Creation time:	15. 06. 2019 19:46

#	Modifying user name:	WinNT
#	Modification time:	15. 06. 2019 19:46

#	Program:	/corina/corina34_cracker 3.40 0067  02.08.2006

@<TRIPOS>MOLECULE
ASD01883264
  50   52    0    0    0
SMALL
NO_CHARGES


@<TRIPOS>ATOM
   1 N1            -0.0159     1.3412     0.0145 N.am    
   2 C2            -0.0109     0.0168    -0.2247 C.2     
   3 C3            -1.2294    -0.7057    -0.2259 C.2     
   4 C4            -2.4262    -0.0110     0.0259 C.2     
   5 C5            -2.3650     1.3756     0.2693 C.2     
   6 C6            -1.1713     2.0104     0.2627 C.2     
   7 O7             1.0412    -0.5605    -0.4404 O.2     
   8 C8            -1.2424    -2.1151    -0.4790 C.1     
   9 N9            -1.2528    -3.2332    -0.6797 N.1     
  10 C10            1.2520     2.0752     0.0131 C.3     
  11 C11            1.5445     2.5851    -1.3994 C.3     
  12 C12            2.8687     3.3516    -1.4009 C.3     
  13 C13            3.2234     3.7541    -2.8338 C.3     
  14 C14            2.7320     4.6073    -0.5375 C.3     
  15 C15           -3.7215    -0.7207     0.0346 C.ar    
  16 C16           -4.4621    -0.8118     1.2163 C.ar    
  17 C17           -5.6689    -1.4740     1.2212 C.ar    
  18 C18           -6.1515    -2.0529     0.0510 C.ar    
  19 C19           -5.4160    -1.9643    -1.1273 C.ar    
  20 C20           -4.2117    -1.2976    -1.1401 C.ar    
  21 N21           -7.3720    -2.7222     0.0593 N.3     
  22 C22           -7.3370    -3.8960    -0.8323 C.3     
  23 C23           -7.7025    -5.1291     0.0206 C.3     
  24 C24           -8.4768    -4.5111     1.2145 C.3     
  25 C25           -7.7176    -3.1770     1.4229 C.3     
  26 H26           -3.2708     1.9303     0.4648 H       
  27 H27           -1.1367     3.0734     0.4505 H       
  28 H28            1.1831     2.9206     0.6976 H       
  29 H29            2.0558     1.4125     0.3339 H       
  30 H30            1.6134     1.7397    -2.0839 H       
  31 H31            0.7407     3.2478    -1.7202 H       
  32 H32            3.6566     2.7164    -0.9963 H       
  33 H33            2.4354     4.3893    -3.2384 H       
  34 H34            4.1667     4.3002    -2.8348 H       
  35 H35            3.3207     2.8595    -3.4489 H       
  36 H36            1.9440     5.2425    -0.9421 H       
  37 H37            2.4793     4.3206     0.4833 H       
  38 H38            3.6754     5.1534    -0.5385 H       
  39 H39           -4.0878    -0.3635     2.1247 H       
  40 H40           -6.2417    -1.5448     2.1340 H       
  41 H41           -5.7929    -2.4148    -2.0336 H       
  42 H42           -3.6416    -1.2289    -2.0548 H       
  43 H43           -8.0627    -3.7729    -1.6362 H       
  44 H44           -6.3366    -4.0161    -1.2481 H       
  45 H45           -8.3408    -5.8109    -0.5413 H       
  46 H46           -6.8032    -5.6385     0.3668 H       
  47 H47           -9.5192    -4.3303     0.9522 H       
  48 H48           -8.4024    -5.1449     2.0982 H       
  49 H49           -6.8132    -3.3425     2.0084 H       
  50 H50           -8.3608    -2.4472     1.9147 H       
@<TRIPOS>BOND
   1    1    2 am
   2    1   10 1
   3    1    6 1
   4    2    3 1
   5    2    7 2
   6    3    4 2
   7    3    8 1
   8    4    5 1
   9    4   15 1
  10    5    6 2
  11    5   26 1
  12    6   27 1
  13    8    9 3
  14   10   11 1
  15   10   28 1
  16   10   29 1
  17   11   12 1
  18   11   30 1
  19   11   31 1
  20   12   13 1
  21   12   14 1
  22   12   32 1
  23   13   33 1
  24   13   34 1
  25   13   35 1
  26   14   36 1
  27   14   37 1
  28   14   38 1
  29   15   16 ar
  30   15   20 ar
  31   16   17 ar
  32   16   39 1
  33   17   18 ar
  34   17   40 1
  35   18   19 ar
  36   18   21 1
  37   19   20 ar
  38   19   41 1
  39   20   42 1
  40   21   22 1
  41   21   25 1
  42   22   23 1
  43   22   43 1
  44   22   44 1
  45   23   24 1
  46   23   45 1
  47   23   46 1
  48   24   25 1
  49   24   47 1
  50   24   48 1
  51   25   49 1
  52   25   50 1

#	End of record

