#	Name: ASD07931349
#	Creating user name:	WinNT
#	Creation time:	15. 06. 2019 21:13

#	Modifying user name:	WinNT
#	Modification time:	15. 06. 2019 21:13

#	Program:	/corina/corina34_cracker 3.40 0067  02.08.2006

@<TRIPOS>MOLECULE
ASD07931349
  51   55    0    0    0
SMALL
NO_CHARGES


@<TRIPOS>ATOM
   1 C1            -0.0162     1.3436     0.0094 C.2     
   2 N2             0.0021    -0.0041     0.0020 N.am    
   3 N3            -1.1336    -0.8178     0.0080 N.2     
   4 C4            -0.8066    -2.0779    -0.0017 C.2     
   5 C5             0.6722    -2.1497    -0.0156 C.2     
   6 C6             1.1207    -0.7604    -0.0181 C.2     
   7 O7             2.2731    -0.3631    -0.0283 O.2     
   8 C8            -1.5435    -3.3561    -0.0019 C.ar    
   9 C9            -0.8039    -4.5505    -0.0151 C.ar    
  10 N10            0.5796    -4.5198    -0.0272 N.pl3   
  11 C11            1.2857    -3.3775    -0.0278 C.2     
  12 C12           -2.9339    -3.3935     0.0111 C.ar    
  13 C13           -3.5852    -4.6099     0.0110 C.ar    
  14 C14           -2.8587    -5.7897    -0.0021 C.ar    
  15 C15           -1.4796    -5.7659    -0.0155 C.ar    
  16 C16            1.3070    -5.7914    -0.0403 C.3     
  17 C17            1.5439    -6.2199    -1.4655 C.ar    
  18 C18            2.6925    -5.8210    -2.1241 C.ar    
  19 C19            2.9122    -6.2118    -3.4306 C.ar    
  20 C20            1.9786    -7.0063    -4.0823 C.ar    
  21 C21            0.8266    -7.4056    -3.4183 C.ar    
  22 C22            0.6149    -7.0159    -2.1102 C.ar    
  23 N23            2.1985    -7.4042    -5.4084 N.pl3   
  24 C24            1.3746    -8.1733    -6.1556 C.2     
  25 C25            1.9456    -8.3263    -7.3728 C.2     
  26 C26            3.1583    -7.6282    -7.3706 C.2     
  27 N27            3.3078    -7.0704    -6.1962 N.2     
  28 C28           -1.3313     2.0792     0.0322 C.3     
  29 C29           -1.0722     3.5871     0.0365 C.3     
  30 N30           -2.3541     4.3041     0.0587 N.3     
  31 O31            1.0254     1.9640     0.0028 O.2     
  32 H32            2.3646    -3.4262    -0.0372 H       
  33 H33           -3.5012    -2.4745     0.0217 H       
  34 H34           -4.6647    -4.6426     0.0214 H       
  35 H35           -3.3772    -6.7370    -0.0021 H       
  36 H36           -0.9241    -6.6920    -0.0256 H       
  37 H37            2.2645    -5.6675     0.4658 H       
  38 H38            0.7195    -6.5514     0.4748 H       
  39 H39            3.4183    -5.2030    -1.6166 H       
  40 H40            3.8091    -5.8994    -3.9447 H       
  41 H41            0.0984    -8.0233    -3.9228 H       
  42 H42           -0.2810    -7.3262    -1.5931 H       
  43 H43            0.4308    -8.5910    -5.8377 H       
  44 H44            1.5375    -8.8880    -8.2000 H       
  45 H45            3.8497    -7.5579    -8.1973 H       
  46 H46           -1.9119     1.8128    -0.8510 H       
  47 H47           -1.8864     1.8033     0.9288 H       
  48 H48           -0.4915     3.8534     0.9197 H       
  49 H49           -0.5170     3.8629    -0.8601 H       
  50 H50           -2.9152     4.0173     0.8467 H       
  51 H51           -2.2098     5.3027     0.0619 H       
@<TRIPOS>BOND
   1    1    2 am
   2    1   31 2
   3    1   28 1
   4    2    3 1
   5    2    6 am
   6    3    4 2
   7    4    5 1
   8    4    8 1
   9    5    6 1
  10    5   11 2
  11    6    7 2
  12    8    9 ar
  13    8   12 ar
  14    9   10 1
  15    9   15 ar
  16   10   11 1
  17   10   16 1
  18   11   32 1
  19   12   13 ar
  20   12   33 1
  21   13   14 ar
  22   13   34 1
  23   14   15 ar
  24   14   35 1
  25   15   36 1
  26   16   17 1
  27   16   37 1
  28   16   38 1
  29   17   18 ar
  30   17   22 ar
  31   18   19 ar
  32   18   39 1
  33   19   20 ar
  34   19   40 1
  35   20   21 ar
  36   20   23 1
  37   21   22 ar
  38   21   41 1
  39   22   42 1
  40   23   24 1
  41   23   27 1
  42   24   25 2
  43   24   43 1
  44   25   26 1
  45   25   44 1
  46   26   27 2
  47   26   45 1
  48   28   29 1
  49   28   46 1
  50   28   47 1
  51   29   30 1
  52   29   48 1
  53   29   49 1
  54   30   50 1
  55   30   51 1

#	End of record

