#	Name: ASD01912108
#	Creating user name:	WinNT
#	Creation time:	15. 06. 2019 19:59

#	Modifying user name:	WinNT
#	Modification time:	15. 06. 2019 19:59

#	Program:	/corina/corina34_cracker 3.40 0067  02.08.2006

@<TRIPOS>MOLECULE
ASD01912108
  59   63    0    0    0
SMALL
NO_CHARGES


@<TRIPOS>ATOM
   1 C1            -0.0163     1.3542     0.0095 C.2     
   2 C2             0.0021    -0.0041     0.0020 C.2     
   3 N3             1.2910    -0.4005    -0.0124 N.2     
   4 C4             2.0643     0.6491    -0.0142 C.2     
   5 N5             1.2897     1.7657    -0.0008 N.pl3   
   6 C6             1.7434     3.0923     0.0016 C.ar    
   7 C7             1.2288     4.0050    -0.9091 C.ar    
   8 C8             1.6778     5.3112    -0.9043 C.ar    
   9 C9             2.6392     5.7100     0.0059 C.ar    
  10 C10            3.1537     4.8031     0.9142 C.ar    
  11 C11            2.7042     3.4971     0.9184 C.ar    
  12 C12           -1.1853    -0.8937     0.0093 C.ar    
  13 C13           -1.0217    -2.2774     0.0002 C.ar    
  14 C14           -2.1290    -3.1011     0.0070 C.ar    
  15 C15           -3.4015    -2.5542     0.0224 C.ar    
  16 C16           -3.5689    -1.1788     0.0315 C.ar    
  17 C17           -2.4676    -0.3478     0.0310 C.ar    
  18 C18            3.5711     0.6276    -0.0282 C.3     
  19 C19            4.0602     0.6284    -1.4536 C.2     
  20 N20            5.3828     0.6110    -1.7123 N.am    
  21 O21            3.2637     0.6448    -2.3681 O.2     
  22 F22           -4.4827    -3.3643     0.0281 F       
  23 C23            5.8815     0.6114    -3.0959 C.3     
  24 C24            6.9195     1.7296    -3.2389 C.3     
  25 N25            7.9522     1.5697    -2.2065 N.3     
  26 C26            7.3846     1.7099    -0.8588 C.3     
  27 C27            6.3658     0.5971    -0.6183 C.3     
  28 C28            8.9917     2.4623    -2.4022 C.ar    
  29 N29           10.0148     2.4583    -1.5604 N.ar    
  30 C30           11.0242     3.2983    -1.7190 C.ar    
  31 C31           11.0023     4.1888    -2.7809 C.ar    
  32 C32            9.9168     4.1661    -3.6424 C.ar    
  33 N33            8.9426     3.2969    -3.4301 N.ar    
  34 C34           -1.9534    -4.5978    -0.0028 C.3     
  35 H35           -0.8915     1.9870     0.0173 H       
  36 H36            0.4783     3.6939    -1.6207 H       
  37 H37            1.2777     6.0217    -1.6126 H       
  38 H38            2.9893     6.7316     0.0073 H       
  39 H39            3.9049     5.1173     1.6238 H       
  40 H40            3.1064     2.7892     1.6280 H       
  41 H41           -0.0299    -2.7047    -0.0125 H       
  42 H42           -4.5629    -0.7566     0.0434 H       
  43 H43           -2.5989     0.7242     0.0381 H       
  44 H44            3.9518     1.5095     0.4870 H       
  45 H45            3.9264    -0.2703     0.4773 H       
  46 H46            6.3456    -0.3495    -3.3182 H       
  47 H47            5.0545     0.7895    -3.7832 H       
  48 H48            7.3798     1.6746    -4.2254 H       
  49 H49            6.4313     2.6967    -3.1183 H       
  50 H50            8.1823     1.6407    -0.1192 H       
  51 H51            6.8899     2.6773    -0.7714 H       
  52 H52            5.8599     0.7632     0.3328 H       
  53 H53            6.8737    -0.3672    -0.6026 H       
  54 H54           11.8553     3.2905    -1.0293 H       
  55 H55           11.8133     4.8856    -2.9335 H       
  56 H56            9.8689     4.8471    -4.4793 H       
  57 H57           -1.9007    -4.9642     1.0225 H       
  58 H58           -2.8001    -5.0597    -0.5105 H       
  59 H59           -1.0324    -4.8522    -0.5273 H       
@<TRIPOS>BOND
   1    1    2 2
   2    1    5 1
   3    1   35 1
   4    2    3 1
   5    2   12 1
   6    3    4 2
   7    4    5 1
   8    4   18 1
   9    5    6 1
  10    6    7 ar
  11    6   11 ar
  12    7    8 ar
  13    7   36 1
  14    8    9 ar
  15    8   37 1
  16    9   10 ar
  17    9   38 1
  18   10   11 ar
  19   10   39 1
  20   11   40 1
  21   12   13 ar
  22   12   17 ar
  23   13   14 ar
  24   13   41 1
  25   14   15 ar
  26   14   34 1
  27   15   16 ar
  28   15   22 1
  29   16   17 ar
  30   16   42 1
  31   17   43 1
  32   18   19 1
  33   18   44 1
  34   18   45 1
  35   19   20 am
  36   19   21 2
  37   20   23 1
  38   20   27 1
  39   23   24 1
  40   23   46 1
  41   23   47 1
  42   24   25 1
  43   24   48 1
  44   24   49 1
  45   25   26 1
  46   25   28 1
  47   26   27 1
  48   26   50 1
  49   26   51 1
  50   27   52 1
  51   27   53 1
  52   28   29 ar
  53   28   33 ar
  54   29   30 ar
  55   30   31 ar
  56   30   54 1
  57   31   32 ar
  58   31   55 1
  59   32   33 ar
  60   32   56 1
  61   34   57 1
  62   34   58 1
  63   34   59 1

#	End of record

