#	Name: ASD03331143
#	Creating user name:	WinNT
#	Creation time:	15. 06. 2019 20:38

#	Modifying user name:	WinNT
#	Modification time:	15. 06. 2019 20:38

#	Program:	/corina/corina34_cracker 3.40 0067  02.08.2006

@<TRIPOS>MOLECULE
ASD03331143
  35   37    0    0    0
SMALL
NO_CHARGES


@<TRIPOS>ATOM
   1 N1            -0.0179     1.4666     0.0101 N.am    
   2 C2             0.0021    -0.0041     0.0020 C.3     
   3 C3             0.9085    -0.4723    -1.1414 C.3     
   4 N4             2.2251     0.1660    -1.0110 N.3     
   5 C5             2.1249     1.6258    -1.1417 C.3     
   6 C6             1.2683     2.1800     0.0017 C.3     
   7 C7            -1.1838     2.1425     0.0194 C.2     
   8 O8            -2.2372     1.5369     0.0211 O.2     
   9 O9            -1.1814     3.4889     0.0267 O.3     
  10 C10            3.1764    -0.3856    -1.9851 C.3     
  11 C11            6.2896     2.1247    -2.3708 C.ar    
  12 C12            6.5750     1.1640    -1.3964 C.ar    
  13 C13            5.4749     0.2299    -1.2199 C.2     
  14 C14            4.4298     0.4510    -1.9923 C.2     
  15 S15            4.6834     1.8413    -3.0295 S.3     
  16 C16            7.8227     1.2118    -0.7385 C.ar    
  17 C17            8.7302     2.1775    -1.0496 C.ar    
  18 C18            8.4442     3.1302    -2.0177 C.ar    
  19 C19            7.2385     3.1045    -2.6782 C.ar    
  20 H20            0.3920    -0.3702     0.9518 H       
  21 H21           -1.0081    -0.3831    -0.1529 H       
  22 H22            1.0231    -1.5553    -1.0945 H       
  23 H23            0.4625    -0.1944    -2.0963 H       
  24 H24            3.1216     2.0644    -1.0951 H       
  25 H25            1.6619     1.8745    -2.0966 H       
  26 H26            1.0953     3.2449    -0.1535 H       
  27 H27            1.7799     2.0238     0.9514 H       
  28 H28           -2.0422     3.9294     0.0332 H       
  29 H29            3.4252    -1.4105    -1.7096 H       
  30 H30            2.7268    -0.3752    -2.9780 H       
  31 H31            5.5113    -0.5834    -0.5102 H       
  32 H32            8.0589     0.4772     0.0172 H       
  33 H33            9.6812     2.2028    -0.5383 H       
  34 H34            9.1723     3.8917    -2.2554 H       
  35 H35            7.0207     3.8477    -3.4309 H       
@<TRIPOS>BOND
   1    1    2 1
   2    1    6 1
   3    1    7 am
   4    2    3 1
   5    2   20 1
   6    2   21 1
   7    3    4 1
   8    3   22 1
   9    3   23 1
  10    4    5 1
  11    4   10 1
  12    5    6 1
  13    5   24 1
  14    5   25 1
  15    6   26 1
  16    6   27 1
  17    7    8 2
  18    7    9 1
  19    9   28 1
  20   10   14 1
  21   10   29 1
  22   10   30 1
  23   11   12 ar
  24   11   15 1
  25   11   19 ar
  26   12   13 1
  27   12   16 ar
  28   13   14 2
  29   13   31 1
  30   14   15 1
  31   16   17 ar
  32   16   32 1
  33   17   18 ar
  34   17   33 1
  35   18   19 ar
  36   18   34 1
  37   19   35 1

#	End of record

