#	Name: ASD06170202
#	Creating user name:	WinNT
#	Creation time:	15. 06. 2019 21:05

#	Modifying user name:	WinNT
#	Modification time:	15. 06. 2019 21:05

#	Program:	/corina/corina34_cracker 3.40 0067  02.08.2006

@<TRIPOS>MOLECULE
ASD06170202
  66   71    0    0    0
SMALL
NO_CHARGES


@<TRIPOS>ATOM
   1 C1             0.4728     0.6110     0.4081 C.2     
   2 C2            -0.1268    -0.4882    -0.2586 C.2     
   3 C3             0.4171    -0.9296    -1.4606 C.2     
   4 C4             1.5469    -0.2702    -1.9776 C.2     
   5 C5             2.0922     0.7950    -1.2888 C.2     
   6 N6             1.5533     1.2157    -0.1188 N.am    
   7 C7            -1.3076    -1.1527     0.3136 C.2     
   8 O8            -1.8928    -2.0079    -0.3237 O.2     
   9 N9            -1.7413    -0.8142     1.5440 N.am    
  10 C10            2.1487    -0.7165    -3.2537 C.2     
  11 C11            2.7368    -1.9106    -3.4607 C.2     
  12 C12            3.2262    -2.0989    -4.7380 C.2     
  13 C13            3.0426    -1.0717    -5.5711 C.2     
  14 S14            2.2001     0.2272    -4.7371 S.3     
  15 C15            2.1311     2.2990     0.5540 C.ar    
  16 C16            3.1491     2.0841     1.4738 C.ar    
  17 C17            3.7170     3.1549     2.1359 C.ar    
  18 C18            3.2729     4.4400     1.8836 C.ar    
  19 C19            2.2594     4.6574     0.9683 C.ar    
  20 C20            1.6913     3.5914     0.2987 C.ar    
  21 O21            0.0047     1.0123     1.4595 O.2     
  22 C22           -2.9210    -1.3654     2.0437 C.ar    
  23 C23           -3.4339    -2.5250     1.4729 C.ar    
  24 C24           -4.6042    -3.0634     1.9765 C.ar    
  25 C25           -5.2265    -2.4182     3.0425 C.ar    
  26 C26           -4.6573    -1.2659     3.5607 C.ar    
  27 N27           -3.5370    -0.7822     3.0593 N.ar    
  28 O28           -6.3787    -2.9127     3.5681 O.3     
  29 N29           -6.1285    -4.9726     7.1326 N.ar    
  30 C30           -5.0567    -4.4237     6.6108 C.ar    
  31 C31           -5.1022    -3.7227     5.4124 C.ar    
  32 C32           -6.3042    -3.5916     4.7394 C.ar    
  33 C33           -7.4515    -4.1867     5.3105 C.ar    
  34 C34           -8.7049    -4.0968     4.6867 C.ar    
  35 C35           -9.7919    -4.6842     5.2668 C.ar    
  36 C36           -9.6682    -5.3762     6.4800 C.ar    
  37 C37           -8.4606    -5.4784     7.1083 C.ar    
  38 C38           -7.3233    -4.8852     6.5358 C.ar    
  39 O39          -10.7652    -5.9523     7.0381 O.3     
  40 C40          -10.5768    -6.6435     8.2745 C.3     
  41 O41          -11.0068    -4.5972     4.6623 O.3     
  42 C42          -11.0676    -3.8786     3.4286 C.3     
  43 H43           -0.0205    -1.7646    -1.9876 H       
  44 H44            2.9599     1.2995    -1.6876 H       
  45 H45           -1.2329    -0.1873     2.0819 H       
  46 H46            2.8193    -2.6612    -2.6885 H       
  47 H47            3.7214    -3.0097    -5.0408 H       
  48 H48            3.3596    -1.0445    -6.6032 H       
  49 H49            3.4961     1.0806     1.6715 H       
  50 H50            4.5084     2.9884     2.8516 H       
  51 H51            3.7184     5.2757     2.4029 H       
  52 H52            1.9146     5.6622     0.7738 H       
  53 H53            0.9029     3.7622    -0.4193 H       
  54 H54           -2.9251    -2.9990     0.6466 H       
  55 H55           -5.0258    -3.9629     1.5528 H       
  56 H56           -5.1342    -0.7602     4.3872 H       
  57 H57           -4.1133    -4.5193     7.1277 H       
  58 H58           -4.2033    -3.2815     5.0078 H       
  59 H59           -8.8092    -3.5651     3.7524 H       
  60 H60           -8.3799    -6.0137     8.0428 H       
  61 H61           -9.8609    -7.4531     8.1328 H       
  62 H62          -10.1969    -5.9496     9.0244 H       
  63 H63          -11.5290    -7.0549     8.6095 H       
  64 H64          -10.7471    -2.8495     3.5914 H       
  65 H65          -10.4108    -4.3526     2.6992 H       
  66 H66          -12.0913    -3.8854     3.0542 H       
@<TRIPOS>BOND
   1    1    2 1
   2    1    6 am
   3    1   21 2
   4    2    3 2
   5    2    7 1
   6    3    4 1
   7    3   43 1
   8    4    5 2
   9    4   10 1
  10    5    6 1
  11    5   44 1
  12    6   15 1
  13    7    8 2
  14    7    9 am
  15    9   22 1
  16    9   45 1
  17   10   11 2
  18   10   14 1
  19   11   12 1
  20   11   46 1
  21   12   13 2
  22   12   47 1
  23   13   14 1
  24   13   48 1
  25   15   16 ar
  26   15   20 ar
  27   16   17 ar
  28   16   49 1
  29   17   18 ar
  30   17   50 1
  31   18   19 ar
  32   18   51 1
  33   19   20 ar
  34   19   52 1
  35   20   53 1
  36   22   23 ar
  37   22   27 ar
  38   23   24 ar
  39   23   54 1
  40   24   25 ar
  41   24   55 1
  42   25   26 ar
  43   25   28 1
  44   26   27 ar
  45   26   56 1
  46   28   32 1
  47   29   30 ar
  48   29   38 ar
  49   30   31 ar
  50   30   57 1
  51   31   32 ar
  52   31   58 1
  53   32   33 ar
  54   33   34 ar
  55   33   38 ar
  56   34   35 ar
  57   34   59 1
  58   35   36 ar
  59   35   41 1
  60   36   37 ar
  61   36   39 1
  62   37   38 ar
  63   37   60 1
  64   39   40 1
  65   40   61 1
  66   40   62 1
  67   40   63 1
  68   41   42 1
  69   42   64 1
  70   42   65 1
  71   42   66 1

#	End of record

