#	Name: ASD00170399
#	Creating user name:	WinNT
#	Creation time:	15. 06. 2019 18:32

#	Modifying user name:	WinNT
#	Modification time:	15. 06. 2019 18:32

#	Program:	/corina/corina34_cracker 3.40 0067  02.08.2006

@<TRIPOS>MOLECULE
ASD00170399
  33   35    0    0    0
SMALL
NO_CHARGES


@<TRIPOS>ATOM
   1 C1             0.0651     1.3401    -0.4419 C.2     
   2 C2             0.0947    -0.0050    -0.4852 C.2     
   3 S3            -1.5385    -0.6132    -0.7513 S.3     
   4 C4            -2.1488     1.0363    -0.7842 C.2     
   5 N5            -1.1717     1.8596    -0.6037 N.2     
   6 N6            -3.4740     1.3956    -0.9698 N.pl3   
   7 C7             1.4515     1.8564    -0.2160 C.ar    
   8 C8             2.3368     0.7897    -0.1212 C.ar    
   9 C9             1.5218    -0.4675    -0.2879 C.3     
  10 C10            1.9291     3.1660    -0.0980 C.ar    
  11 C11            3.2827     3.3870     0.1125 C.ar    
  12 C12            4.1587     2.3107     0.2051 C.ar    
  13 C13            3.6811     1.0126     0.0884 C.ar    
  14 O14            3.7538     4.6586     0.2282 O.3     
  15 C15            4.1721     5.3074    -0.9744 C.3     
  16 O16            5.4850     2.5303     0.4110 O.3     
  17 C17            6.3277     1.3793     0.4959 C.3     
  18 O18            1.0713     4.2171    -0.1897 O.3     
  19 C19            0.4886     4.6870     1.0276 C.3     
  20 H20           -4.1493     0.7106    -1.0949 H       
  21 H21           -3.7265     2.3321    -0.9748 H       
  22 H22            1.5970    -1.0864     0.6062 H       
  23 H23            1.8617    -1.0237    -1.1615 H       
  24 H24            4.3623     0.1777     0.1603 H       
  25 H25            4.4510     6.3376    -0.7533 H       
  26 H26            5.0299     4.7803    -1.3921 H       
  27 H27            3.3543     5.2990    -1.6951 H       
  28 H28            7.3579     1.6947     0.6611 H       
  29 H29            6.0026     0.7514     1.3254 H       
  30 H30            6.2654     0.8140    -0.4339 H       
  31 H31           -0.2321     5.4740     0.8054 H       
  32 H32           -0.0171     3.8626     1.5303 H       
  33 H33            1.2705     5.0829     1.6756 H       
@<TRIPOS>BOND
   1    1    2 2
   2    1    7 1
   3    1    5 1
   4    2    3 1
   5    2    9 1
   6    3    4 1
   7    4    5 2
   8    4    6 1
   9    6   20 1
  10    6   21 1
  11    7    8 ar
  12    7   10 ar
  13    8    9 1
  14    8   13 ar
  15    9   22 1
  16    9   23 1
  17   10   11 ar
  18   10   18 1
  19   11   12 ar
  20   11   14 1
  21   12   13 ar
  22   12   16 1
  23   13   24 1
  24   14   15 1
  25   15   25 1
  26   15   26 1
  27   15   27 1
  28   16   17 1
  29   17   28 1
  30   17   29 1
  31   17   30 1
  32   18   19 1
  33   19   31 1
  34   19   32 1
  35   19   33 1

#	End of record

