#	Name: ASD03240103
#	Creating user name:	WinNT
#	Creation time:	15. 06. 2019 20:34

#	Modifying user name:	WinNT
#	Modification time:	15. 06. 2019 20:34

#	Program:	/corina/corina34_cracker 3.40 0067  02.08.2006

@<TRIPOS>MOLECULE
ASD03240103
  71   75    0    0    0
SMALL
NO_CHARGES


@<TRIPOS>ATOM
   1 C1            -0.0172     1.4161     0.0098 C.ar    
   2 C2             0.0021    -0.0041     0.0020 C.ar    
   3 C3             1.1944     2.1238     0.0021 C.ar    
   4 C4             2.3741     1.3943    -0.0132 C.ar    
   5 C5             2.3168    -0.0170    -0.0203 C.ar    
   6 N6             1.1632    -0.6586    -0.0127 N.ar    
   7 C7             3.5780    -0.7936    -0.0370 C.ar    
   8 C8             3.6832     2.0897    -0.0224 C.ar    
   9 C9             3.9287     3.1071    -0.9434 C.ar    
  10 C10            5.1491     3.7512    -0.9470 C.ar    
  11 C11            6.1280     3.3890    -0.0391 C.ar    
  12 C12            5.8903     2.3799     0.8768 C.ar    
  13 C13            4.6717     1.7327     0.8936 C.ar    
  14 C14            3.6631    -2.0058     0.6475 C.ar    
  15 C15            4.8407    -2.7246     0.6281 C.ar    
  16 C16            5.9358    -2.2450    -0.0680 C.ar    
  17 C17            5.8577    -1.0432    -0.7489 C.ar    
  18 C18            4.6836    -0.3183    -0.7421 C.ar    
  19 C19            7.2193    -3.0345    -0.0842 C.3     
  20 N20           -1.1674    -0.6568     0.0102 N.ar    
  21 C21           -2.3050     0.0125     0.0251 C.ar    
  22 N22           -2.3572     1.3437     0.0327 N.ar    
  23 C23           -1.2610     2.0734     0.0311 C.ar    
  24 S24           -3.8170    -0.8921     0.0348 S.3     
  25 C25           -5.0018     0.4762     0.0542 C.3     
  26 N26            7.2094    -3.9619    -1.2235 N.3     
  27 C27            8.5295    -4.5763    -1.4135 C.3     
  28 C28            8.5219    -5.4203    -2.6900 C.3     
  29 C29            7.4461    -6.5036    -2.5733 C.3     
  30 C30            6.0886    -5.8394    -2.3276 C.3     
  31 C31            6.1667    -4.9832    -1.0616 C.3     
  32 N32            7.3945    -7.2782    -3.8158 N.am    
  33 C33            6.9305    -8.5435    -3.8023 C.2     
  34 C34            6.8774    -9.3402    -5.0804 C.3     
  35 O35            6.5558    -9.0409    -2.7616 O.2     
  36 N36            6.3393   -10.6741    -4.8023 N.am    
  37 C37            6.1997   -11.5665    -5.8026 C.2     
  38 C38            5.6461   -12.9386    -5.5166 C.3     
  39 O39            6.5196   -11.2652    -6.9330 O.2     
  40 H40            1.2080     3.2037     0.0074 H       
  41 H41            3.1653     3.3904    -1.6529 H       
  42 H42            5.3405     4.5393    -1.6602 H       
  43 H43            7.0817     3.8959    -0.0456 H       
  44 H44            6.6584     2.1012     1.5830 H       
  45 H45            4.4871     0.9452     1.6093 H       
  46 H46            2.8090    -2.3809     1.1918 H       
  47 H47            4.9078    -3.6635     1.1577 H       
  48 H48            6.7160    -0.6737    -1.2902 H       
  49 H49            4.6236     0.6196    -1.2743 H       
  50 H50            8.0643    -2.3525    -0.1783 H       
  51 H51            7.3100    -3.5996     0.8434 H       
  52 H52           -1.3156     3.1520     0.0373 H       
  53 H53           -6.0164     0.0781     0.0618 H       
  54 H54           -4.8424     1.0821     0.9461 H       
  55 H55           -4.8598     1.0922    -0.8338 H       
  56 H56            9.2848    -3.7950    -1.4992 H       
  57 H57            8.7605    -5.2123    -0.5589 H       
  58 H58            8.3046    -4.7824    -3.5468 H       
  59 H59            9.4972    -5.8887    -2.8224 H       
  60 H60            7.6841    -7.1651    -1.7403 H       
  61 H61            5.8329    -5.2081    -3.1787 H       
  62 H62            5.3253    -6.6072    -2.2011 H       
  63 H63            6.4088    -5.6173    -0.2087 H       
  64 H64            5.2058    -4.4975    -0.8917 H       
  65 H65            7.6942    -6.8803    -4.6481 H       
  66 H66            6.2347    -8.8317    -5.7991 H       
  67 H67            7.8821    -9.4325    -5.4930 H       
  68 H68            6.0834   -10.9151    -3.8982 H       
  69 H69            5.4176   -13.0240    -4.4542 H       
  70 H70            4.7365   -13.0918    -6.0973 H       
  71 H71            6.3839   -13.6925    -5.7913 H       
@<TRIPOS>BOND
   1    1    2 ar
   2    1    3 ar
   3    1   23 ar
   4    2   20 ar
   5    2    6 ar
   6    3    4 ar
   7    3   40 1
   8    4    5 ar
   9    4    8 1
  10    5    6 ar
  11    5    7 1
  12    7   14 ar
  13    7   18 ar
  14    8    9 ar
  15    8   13 ar
  16    9   10 ar
  17    9   41 1
  18   10   11 ar
  19   10   42 1
  20   11   12 ar
  21   11   43 1
  22   12   13 ar
  23   12   44 1
  24   13   45 1
  25   14   15 ar
  26   14   46 1
  27   15   16 ar
  28   15   47 1
  29   16   17 ar
  30   16   19 1
  31   17   18 ar
  32   17   48 1
  33   18   49 1
  34   19   26 1
  35   19   50 1
  36   19   51 1
  37   20   21 ar
  38   21   22 ar
  39   21   24 1
  40   22   23 ar
  41   23   52 1
  42   24   25 1
  43   25   53 1
  44   25   54 1
  45   25   55 1
  46   26   27 1
  47   26   31 1
  48   27   28 1
  49   27   56 1
  50   27   57 1
  51   28   29 1
  52   28   58 1
  53   28   59 1
  54   29   30 1
  55   29   32 1
  56   29   60 1
  57   30   31 1
  58   30   61 1
  59   30   62 1
  60   31   63 1
  61   31   64 1
  62   32   33 am
  63   32   65 1
  64   33   34 1
  65   33   35 2
  66   34   36 1
  67   34   66 1
  68   34   67 1
  69   36   37 am
  70   36   68 1
  71   37   38 1
  72   37   39 2
  73   38   69 1
  74   38   70 1
  75   38   71 1

#	End of record

