#	Name: ASD06590038
#	Creating user name:	WinNT
#	Creation time:	15. 06. 2019 21:06

#	Modifying user name:	WinNT
#	Modification time:	15. 06. 2019 21:06

#	Program:	/corina/corina34_cracker 3.40 0067  02.08.2006

@<TRIPOS>MOLECULE
ASD06590038
 316  317    0    0    0
SMALL
NO_CHARGES


@<TRIPOS>ATOM
   1 C1            -3.4214     0.8772    -2.1771 C.2     
   2 O2            -3.9925    -0.1793    -2.3461 O.2     
   3 N3            -1.3414    -0.3613    -2.3880 N.3     
   4 C4            -1.9386     0.9803    -2.4254 C.3     
   5 C5            -1.6938     1.6094    -3.7984 C.3     
   6 C6            -0.1929     1.8287    -3.9987 C.3     
   7 C7             0.0518     2.4578    -5.3717 C.3     
   8 N8             1.4889     2.6678    -5.5635 N.pl3   
   9 C9             1.9522     3.2250    -6.7314 C.2     
  10 N10            1.1219     3.4996    -7.6958 N.2     
  11 N11            3.2990     3.4938    -6.8818 N.am    
  12 C12           -6.1866     3.2206    -1.7025 C.2     
  13 O13           -5.4984     4.1774    -1.9888 O.2     
  14 N14           -4.1139     1.9604    -1.7727 N.am    
  15 C15           -5.5565     1.8617    -1.5372 C.3     
  16 C16           -5.8076     1.3525    -0.1165 C.3     
  17 C17           -5.2774    -0.0767     0.0142 C.3     
  18 C18           -5.5248    -0.5783     1.4136 C.2     
  19 O19           -6.0693     0.1343     2.2233 O.2     
  20 O20           -5.1403    -1.8166     1.7605 O.3     
  21 C21           -9.4044     4.7558    -0.8951 C.2     
  22 O22           -9.8505     3.7497    -0.3854 O.2     
  23 N23           -7.5149     3.3728    -1.5322 N.am    
  24 C24           -8.1274     4.6938    -1.6929 C.3     
  25 C25           -8.4376     4.9357    -3.1715 C.3     
  26 C26           -7.1329     4.9501    -3.9705 C.3     
  27 O27           -9.2826     3.8911    -3.6580 O.3     
  28 C28          -12.3330     6.7322    -0.9364 C.2     
  29 O29          -11.9762     7.1975    -1.9980 O.2     
  30 N30          -10.0507     5.9293    -0.7479 N.am    
  31 C31          -11.3547     5.9688    -0.0813 C.3     
  32 C32          -11.2134     6.6624     1.2751 C.3     
  33 C33          -10.2115     5.9168     2.1186 C.2     
  34 O34           -9.6111     4.9714     1.6532 O.2     
  35 N35           -9.9828     6.3006     3.3901 N.am    
  36 C36          -15.6453     8.2104    -0.4818 C.2     
  37 O37          -15.6291     8.0161     0.7152 O.2     
  38 N38          -13.6046     6.8979    -0.5213 N.am    
  39 C39          -14.5556     7.6400    -1.3526 C.3     
  40 C40          -15.1715     6.6973    -2.3884 C.3     
  41 C41          -18.6756    10.2544    -1.0419 C.2     
  42 O42          -18.5048    10.3280    -2.2403 O.2     
  43 N43          -16.6379     8.9364    -1.0333 N.am    
  44 C44          -17.6973     9.4909    -0.1868 C.3     
  45 C45          -21.3864    12.6384    -0.4667 C.2     
  46 O46          -21.1141    12.7495     0.7099 O.2     
  47 N47          -19.7404    10.8553    -0.4748 N.am    
  48 C48          -20.6914    11.5974    -1.3060 C.3     
  49 C49          -21.7284    10.6307    -1.8814 C.3     
  50 C50          -21.0391     9.6501    -2.8323 C.3     
  51 C51          -22.0761     8.6835    -3.4077 C.3     
  52 N52          -21.4160     7.7445    -4.3182 N.pl3   
  53 C53          -22.1519     6.7758    -4.9588 C.2     
  54 N54          -21.5647     5.9404    -5.7688 N.2     
  55 N55          -23.5072     6.6883    -4.7449 N.pl3   
  56 C56          -24.3238    14.7855    -0.8197 C.2     
  57 O57          -24.6780    14.2284    -1.8372 O.2     
  58 N58          -22.3106    13.4460    -1.0237 N.am    
  59 C59          -22.9862    14.4580    -0.2078 C.3     
  60 C60          -22.1279    15.7233    -0.1508 C.3     
  61 O61          -22.0324    16.2934    -1.4577 O.3     
  62 C62          -26.0914    17.1682    -1.9083 C.2     
  63 O63          -24.9558    17.5601    -2.0748 O.2     
  64 N64          -25.1266    15.6974    -0.2363 N.am    
  65 C65          -26.3766    16.0965    -0.8879 C.3     
  66 C66          -27.3489    16.6378     0.1621 C.3     
  67 C67          -27.7385    15.5287     1.1051 C.2     
  68 O68          -27.2277    14.4388     0.9997 O.2     
  69 O69          -28.6529    15.7517     2.0621 O.3     
  70 C70          -28.0614    19.5600    -3.8477 C.2     
  71 O71          -29.1163    19.2122    -3.3609 O.2     
  72 N72          -27.0982    17.6911    -2.6358 N.am    
  73 C73          -26.8209    18.7329    -3.6277 C.3     
  74 C74          -26.4012    18.0821    -4.9472 C.3     
  75 C75          -25.1267    17.2640    -4.7296 C.3     
  76 O76          -27.4459    17.2229    -5.4080 O.3     
  77 C77          -29.0225    22.2255    -6.1574 C.2     
  78 O78          -27.9617    22.1766    -6.7432 O.2     
  79 N79          -27.9984    20.6861    -4.5855 N.am    
  80 C80          -29.2226    21.4295    -4.8935 C.3     
  81 C81          -29.5467    22.3792    -3.7385 C.3     
  82 C82          -29.8722    21.5650    -2.4847 C.3     
  83 C83          -30.1963    22.5147    -1.3298 C.3     
  84 N84          -30.5079    21.7351    -0.1292 N.pl3   
  85 C85          -30.8321    22.3772     1.0424 C.2     
  86 N86          -31.1093    21.6836     2.1106 N.2     
  87 N87          -30.8638    23.7509     1.0874 N.pl3   
  88 C88          -30.7625    24.9475    -7.8678 C.2     
  89 O89          -31.5170    25.1260    -6.9351 O.2     
  90 N90          -30.0223    22.9916    -6.6367 N.am    
  91 C91          -29.8278    23.7655    -7.8653 C.3     
  92 C92          -30.1221    22.8799    -9.0778 C.3     
  93 C93          -29.0940    21.7488    -9.1447 C.3     
  94 C94          -29.3840    20.8765   -10.3390 C.2     
  95 O95          -30.3206    21.1342   -11.0650 O.2     
  96 N96          -28.6023    19.8101   -10.6002 N.am    
  97 C97          -31.9351    27.3823   -10.3295 C.2     
  98 O98          -31.4168    26.7855   -11.2493 O.2     
  99 N99          -30.7602    25.8063    -8.9065 N.am    
 100 C100         -31.6689    26.9554    -8.9090 C.3     
 101 C101         -31.0292    28.1131    -8.1399 C.3     
 102 C102         -30.8733    27.7236    -6.6686 C.3     
 103 C103         -30.2432    28.8639    -5.9111 C.2     
 104 O104         -29.9480    29.8873    -6.4909 O.2     
 105 N105         -30.0078    28.7463    -4.5892 N.am    
 106 C106         -33.3928    30.2992   -11.9818 C.2     
 107 O107         -33.4458    30.9288   -10.9466 O.2     
 108 N108         -32.7491    28.4274   -10.5778 N.am    
 109 C109         -33.0079    28.8423   -11.9588 C.3     
 110 C110         -34.1494    28.0041   -12.5378 C.3     
 111 C111         -33.7182    26.5629   -12.6288 C.ar    
 112 C112         -33.9386    25.7081   -11.5646 C.ar    
 113 C113         -33.5439    24.3867   -11.6453 C.ar    
 114 C114         -32.9263    23.9175   -12.7955 C.ar    
 115 O115         -32.5374    22.6179   -12.8775 O.3     
 116 C116         -32.7066    24.7771   -13.8621 C.ar    
 117 C117         -33.1079    26.0964   -13.7784 C.ar    
 118 C118         -34.8833    32.5994   -14.4006 C.2     
 119 O119         -35.1379    31.7046   -15.1787 O.2     
 120 N120         -33.6782    30.9024   -13.1527 N.am    
 121 C121         -34.0524    32.3186   -13.1751 C.3     
 122 C122         -32.7882    33.1797   -13.2078 C.3     
 123 C123         -32.0067    32.9880   -11.9065 C.3     
 124 C124         -30.7424    33.8491   -11.9393 C.3     
 125 N125         -29.9942    33.6655   -10.6932 N.pl3   
 126 C126         -28.8145    34.3429   -10.4936 C.2     
 127 N127         -28.3619    35.1484   -11.4130 N.2     
 128 N128         -28.1123    34.1706    -9.3243 N.pl3   
 129 C129         -35.2429    34.3917   -16.9941 C.2     
 130 O130         -34.0438    34.3620   -16.8483 O.2     
 131 N131         -35.3435    33.8448   -14.6319 N.am    
 132 C132         -36.1513    34.1178   -15.8232 C.3     
 133 C133         -37.0383    35.3383   -15.5694 C.3     
 134 C134         -38.0297    35.0209   -14.4797 C.ar    
 135 C135         -37.7075    35.2690   -13.1585 C.ar    
 136 C136         -38.6169    34.9778   -12.1589 C.ar    
 137 C137         -39.8486    34.4389   -12.4806 C.ar    
 138 C138         -40.1711    34.1916   -13.8018 C.ar    
 139 C139         -39.2634    34.4869   -14.8017 C.ar    
 140 O140         -35.7659    34.6687   -18.1988 O.3     
 141 C141           4.1749     3.0975    -5.9373 C.2     
 142 O142           3.8008     2.4023    -5.0170 O.2     
 143 C143          21.2957     2.4503     1.6553 C.3     
 144 C144          19.8293     2.0229     1.7442 C.3     
 145 C145          19.0562     2.6029     0.5581 C.3     
 146 C146          17.5898     2.1755     0.6471 C.3     
 147 C147          16.8167     2.7555    -0.5391 C.3     
 148 C148          15.3503     2.3281    -0.4501 C.3     
 149 C149          14.5772     2.9081    -1.6362 C.3     
 150 C150          13.1108     2.4807    -1.5473 C.3     
 151 C151          12.3378     3.0606    -2.7334 C.3     
 152 C152          10.8713     2.6333    -2.6444 C.3     
 153 C153          10.0983     3.2132    -3.8306 C.3     
 154 C154           8.6319     2.7859    -3.7416 C.3     
 155 C155           7.8588     3.3658    -4.9277 C.3     
 156 C156           6.3924     2.9385    -4.8388 C.3     
 157 C157           5.6193     3.5184    -6.0249 C.3     
 158 H158          -1.7469    -0.9574    -3.0939 H       
 159 H159          -0.3385    -0.3136    -2.4875 H       
 160 H160          -1.4835     1.6022    -1.6544 H       
 161 H161          -2.0707     0.9441    -4.5752 H       
 162 H162          -2.2119     2.5666    -3.8570 H       
 163 H163           0.1839     2.4940    -3.2218 H       
 164 H164           0.3251     0.8715    -3.9400 H       
 165 H165          -0.3250     1.7925    -6.1486 H       
 166 H166          -0.4663     3.4150    -5.4304 H       
 167 H167           2.1135     2.4135    -4.8663 H       
 168 H168           1.4361     3.9591    -8.4902 H       
 169 H169           3.6142     3.9677    -7.6673 H       
 170 H170          -3.6571     2.8054    -1.6375 H       
 171 H171          -5.9951     1.1681    -2.2546 H       
 172 H172          -5.2940     1.9972     0.5967 H       
 173 H173          -6.8779     1.3632     0.0894 H       
 174 H174          -5.7911    -0.7214    -0.6989 H       
 175 H175          -4.2071    -0.0874    -0.1917 H       
 176 H176          -5.3203    -2.0938     2.6693 H       
 177 H177          -8.0652     2.6076    -1.3032 H       
 178 H178          -7.4386     5.4595    -1.3362 H       
 179 H179          -8.9435     5.8946    -3.2844 H       
 180 H180          -6.6810     3.9585    -3.9463 H       
 181 H181          -7.3424     5.2288    -5.0033 H       
 182 H182          -6.4458     5.6733    -3.5313 H       
 183 H183         -10.1295     3.8231    -3.1962 H       
 184 H184          -9.6525     6.7477    -1.0833 H       
 185 H185         -11.7180     4.9518     0.0667 H       
 186 H186         -10.8717     7.6866     1.1255 H       
 187 H187         -12.1789     6.6716     1.7808 H       
 188 H188         -10.4630     7.0567     3.7624 H       
 189 H189          -9.3380     5.8206     3.9331 H       
 190 H190         -13.8900     6.5257     0.3278 H       
 191 H191         -14.0363     8.4512    -1.8629 H       
 192 H192         -15.6908     5.8862    -1.8781 H       
 193 H193         -15.8791     7.2495    -3.0069 H       
 194 H194         -14.3833     6.2848    -3.0182 H       
 195 H195         -16.6509     9.0918    -1.9907 H       
 196 H196         -17.2585    10.1625     0.5511 H       
 197 H197         -18.2166     8.6798     0.3235 H       
 198 H198         -19.8770    10.7964     0.4837 H       
 199 H199         -20.1576    12.0853    -2.1215 H       
 200 H200         -22.2002    10.0782    -1.0690 H       
 201 H201         -22.4864    11.1933    -2.4265 H       
 202 H202         -20.5673    10.2027    -3.6448 H       
 203 H203         -20.2811     9.0876    -2.2873 H       
 204 H204         -22.5479     8.1309    -2.5953 H       
 205 H205         -22.8341     9.2460    -3.9528 H       
 206 H206         -20.4598     7.8062    -4.4691 H       
 207 H207         -22.0839     5.2570    -6.2207 H       
 208 H208         -23.9442     7.3100    -4.1421 H       
 209 H209         -24.0264     6.0049    -5.1969 H       
 210 H210         -22.5283    13.3572    -1.9647 H       
 211 H211         -23.1328    14.0726     0.8012 H       
 212 H212         -22.5866    16.4432     0.5270 H       
 213 H213         -21.1306    15.4700     0.2088 H       
 214 H214         -21.5014    17.1006    -1.4968 H       
 215 H215         -24.8768    16.0896     0.6149 H       
 216 H216         -26.8203    15.2325    -1.3827 H       
 217 H217         -26.8685    17.4396     0.7229 H       
 218 H218         -28.2401    17.0238    -0.3327 H       
 219 H219         -28.8703    15.0098     2.6430 H       
 220 H220         -28.0065    17.3777    -2.5026 H       
 221 H221         -26.0164    19.3736    -3.2665 H       
 222 H222         -26.2133    18.8566    -5.6907 H       
 223 H223         -25.3438    16.4207    -4.0740 H       
 224 H224         -24.7639    16.8946    -5.6888 H       
 225 H225         -24.3645    17.8939    -4.2710 H       
 226 H226         -28.2856    17.6752    -5.5674 H       
 227 H227         -27.1425    21.0043    -4.9127 H       
 228 H228         -30.0474    20.7302    -5.0313 H       
 229 H229         -28.6869    23.0198    -3.5427 H       
 230 H230         -30.4056    22.9952    -4.0048 H       
 231 H231         -30.7320    20.9243    -2.6805 H       
 232 H232         -29.0132    20.9490    -2.2185 H       
 233 H233         -29.3364    23.1553    -1.1340 H       
 234 H234         -31.0552    23.1307    -1.5961 H       
 235 H235         -30.4855    20.7659    -0.1610 H       
 236 H236         -31.3380    22.1366     2.9372 H       
 237 H237         -30.6575    24.2671     0.2925 H       
 238 H238         -31.0926    24.2039     1.9140 H       
 239 H239         -30.8708    23.0307    -6.1681 H       
 240 H240         -28.7972    24.1171    -7.9138 H       
 241 H241         -31.1223    22.4568    -8.9844 H       
 242 H242         -30.0640    23.4780    -9.9872 H       
 243 H243         -28.0939    22.1719    -9.2381 H       
 244 H244         -29.1521    21.1507    -8.2353 H       
 245 H245         -27.8532    19.6040   -10.0195 H       
 246 H246         -28.7889    19.2486   -11.3689 H       
 247 H247         -30.1568    25.6636    -9.6525 H       
 248 H248         -32.6082    26.6769    -8.4312 H       
 249 H249         -30.0492    28.3331    -8.5634 H       
 250 H250         -31.6646    28.9954    -8.2168 H       
 251 H251         -31.8533    27.5036    -6.2451 H       
 252 H252         -30.2379    26.8412    -6.5917 H       
 253 H253         -30.2440    27.9277    -4.1255 H       
 254 H254         -29.6023    29.4802    -4.1017 H       
 255 H255         -33.1637    28.9047    -9.8422 H       
 256 H256         -32.1089    28.6946   -12.5571 H       
 257 H257         -35.0223    28.0819   -11.8898 H       
 258 H258         -34.4015    28.3713   -13.5326 H       
 259 H259         -34.4195    26.0739   -10.6694 H       
 260 H260         -33.7157    23.7196   -10.8135 H       
 261 H261         -33.2133    22.0271   -13.2370 H       
 262 H262         -32.2257    24.4143   -14.7584 H       
 263 H263         -32.9411    26.7649   -14.6101 H       
 264 H264         -33.6359    30.3988   -13.9807 H       
 265 H265         -34.6305    32.5558   -12.2820 H       
 266 H266         -32.1669    32.8809   -14.0521 H       
 267 H267         -33.0655    34.2285   -13.3140 H       
 268 H268         -32.6280    33.2868   -11.0622 H       
 269 H269         -31.7293    31.9392   -11.8004 H       
 270 H270         -30.1211    33.5503   -12.7835 H       
 271 H271         -31.0198    34.8978   -12.0454 H       
 272 H272         -30.3310    33.0661   -10.0090 H       
 273 H273         -27.5296    35.6263   -11.2722 H       
 274 H274         -28.4492    33.5712    -8.6401 H       
 275 H275         -27.2800    34.6485    -9.1834 H       
 276 H276         -35.1400    34.5605   -14.0095 H       
 277 H277         -36.7774    33.2532   -16.0436 H       
 278 H278         -36.4182    36.1805   -15.2624 H       
 279 H279         -37.5732    35.5952   -16.4837 H       
 280 H280         -36.7453    35.6900   -12.9071 H       
 281 H281         -38.3650    35.1709   -11.1266 H       
 282 H282         -40.5588    34.2107   -11.6996 H       
 283 H283         -41.1332    33.7703   -14.0531 H       
 284 H284         -39.5167    34.2971   -15.8343 H       
 285 H285         -35.1434    34.8375   -18.9193 H       
 286 H286          21.7263     2.0800     0.7249 H       
 287 H287          21.3591     3.5382     1.6773 H       
 288 H288          21.8465     2.0371     2.5003 H       
 289 H289          19.7660     0.9350     1.7223 H       
 290 H290          19.3988     2.3932     2.6746 H       
 291 H291          19.1196     3.6908     0.5801 H       
 292 H292          19.4868     2.2326    -0.3723 H       
 293 H293          17.5265     1.0876     0.6251 H       
 294 H294          17.1593     2.5458     1.5774 H       
 295 H295          16.8801     3.8434    -0.5171 H       
 296 H296          17.2473     2.3851    -1.4694 H       
 297 H297          15.2870     1.2402    -0.4721 H       
 298 H298          14.9198     2.6984     0.4803 H       
 299 H299          14.6406     3.9960    -1.6142 H       
 300 H300          15.0078     2.5377    -2.5666 H       
 301 H301          13.0475     1.3928    -1.5692 H       
 302 H302          12.6803     2.8510    -0.6169 H       
 303 H303          12.4011     4.1486    -2.7114 H       
 304 H304          12.7683     2.6903    -3.6638 H       
 305 H305          10.8080     1.5454    -2.6664 H       
 306 H306          10.4408     3.0036    -1.7141 H       
 307 H307          10.1616     4.3012    -3.8086 H       
 308 H308          10.5288     2.8429    -4.7609 H       
 309 H309           8.5685     1.6979    -3.7636 H       
 310 H310           8.2013     3.1562    -2.8112 H       
 311 H311           7.9221     4.4538    -4.9058 H       
 312 H312           8.2893     2.9955    -5.8581 H       
 313 H313           6.3290     1.8505    -4.8607 H       
 314 H314           5.9618     3.3088    -3.9084 H       
 315 H315           6.0498     3.1481    -6.9553 H       
 316 H316           5.6826     4.6064    -6.0029 H       
@<TRIPOS>BOND
   1    1    2 2
   2    1    4 1
   3    1   14 am
   4    3    4 1
   5    3  158 1
   6    3  159 1
   7    4    5 1
   8    4  160 1
   9    5    6 1
  10    5  161 1
  11    5  162 1
  12    6    7 1
  13    6  163 1
  14    6  164 1
  15    7    8 1
  16    7  165 1
  17    7  166 1
  18    8    9 1
  19    8  167 1
  20    9   10 2
  21    9   11 1
  22   10  168 1
  23   11  141 am
  24   11  169 1
  25   12   13 2
  26   12   15 1
  27   12   23 am
  28   14   15 1
  29   14  170 1
  30   15   16 1
  31   15  171 1
  32   16   17 1
  33   16  172 1
  34   16  173 1
  35   17   18 1
  36   17  174 1
  37   17  175 1
  38   18   19 2
  39   18   20 1
  40   20  176 1
  41   21   22 2
  42   21   24 1
  43   21   30 am
  44   23   24 1
  45   23  177 1
  46   24   25 1
  47   24  178 1
  48   25   26 1
  49   25   27 1
  50   25  179 1
  51   26  180 1
  52   26  181 1
  53   26  182 1
  54   27  183 1
  55   28   29 2
  56   28   31 1
  57   28   38 am
  58   30   31 1
  59   30  184 1
  60   31   32 1
  61   31  185 1
  62   32   33 1
  63   32  186 1
  64   32  187 1
  65   33   34 2
  66   33   35 am
  67   35  188 1
  68   35  189 1
  69   36   37 2
  70   36   39 1
  71   36   43 am
  72   38   39 1
  73   38  190 1
  74   39   40 1
  75   39  191 1
  76   40  192 1
  77   40  193 1
  78   40  194 1
  79   41   42 2
  80   41   44 1
  81   41   47 am
  82   43   44 1
  83   43  195 1
  84   44  196 1
  85   44  197 1
  86   45   46 2
  87   45   48 1
  88   45   58 am
  89   47   48 1
  90   47  198 1
  91   48   49 1
  92   48  199 1
  93   49   50 1
  94   49  200 1
  95   49  201 1
  96   50   51 1
  97   50  202 1
  98   50  203 1
  99   51   52 1
 100   51  204 1
 101   51  205 1
 102   52   53 1
 103   52  206 1
 104   53   54 2
 105   53   55 1
 106   54  207 1
 107   55  208 1
 108   55  209 1
 109   56   57 2
 110   56   59 1
 111   56   64 am
 112   58   59 1
 113   58  210 1
 114   59   60 1
 115   59  211 1
 116   60   61 1
 117   60  212 1
 118   60  213 1
 119   61  214 1
 120   62   63 2
 121   62   65 1
 122   62   72 am
 123   64   65 1
 124   64  215 1
 125   65   66 1
 126   65  216 1
 127   66   67 1
 128   66  217 1
 129   66  218 1
 130   67   68 2
 131   67   69 1
 132   69  219 1
 133   70   71 2
 134   70   73 1
 135   70   79 am
 136   72   73 1
 137   72  220 1
 138   73   74 1
 139   73  221 1
 140   74   75 1
 141   74   76 1
 142   74  222 1
 143   75  223 1
 144   75  224 1
 145   75  225 1
 146   76  226 1
 147   77   78 2
 148   77   80 1
 149   77   90 am
 150   79   80 1
 151   79  227 1
 152   80   81 1
 153   80  228 1
 154   81   82 1
 155   81  229 1
 156   81  230 1
 157   82   83 1
 158   82  231 1
 159   82  232 1
 160   83   84 1
 161   83  233 1
 162   83  234 1
 163   84   85 1
 164   84  235 1
 165   85   86 2
 166   85   87 1
 167   86  236 1
 168   87  237 1
 169   87  238 1
 170   88   89 2
 171   88   91 1
 172   88   99 am
 173   90   91 1
 174   90  239 1
 175   91   92 1
 176   91  240 1
 177   92   93 1
 178   92  241 1
 179   92  242 1
 180   93   94 1
 181   93  243 1
 182   93  244 1
 183   94   95 2
 184   94   96 am
 185   96  245 1
 186   96  246 1
 187   97   98 2
 188   97  100 1
 189   97  108 am
 190   99  100 1
 191   99  247 1
 192  100  101 1
 193  100  248 1
 194  101  102 1
 195  101  249 1
 196  101  250 1
 197  102  103 1
 198  102  251 1
 199  102  252 1
 200  103  104 2
 201  103  105 am
 202  105  253 1
 203  105  254 1
 204  106  107 2
 205  106  109 1
 206  106  120 am
 207  108  109 1
 208  108  255 1
 209  109  110 1
 210  109  256 1
 211  110  111 1
 212  110  257 1
 213  110  258 1
 214  111  112 ar
 215  111  117 ar
 216  112  113 ar
 217  112  259 1
 218  113  114 ar
 219  113  260 1
 220  114  115 1
 221  114  116 ar
 222  115  261 1
 223  116  117 ar
 224  116  262 1
 225  117  263 1
 226  118  119 2
 227  118  121 1
 228  118  131 am
 229  120  121 1
 230  120  264 1
 231  121  122 1
 232  121  265 1
 233  122  123 1
 234  122  266 1
 235  122  267 1
 236  123  124 1
 237  123  268 1
 238  123  269 1
 239  124  125 1
 240  124  270 1
 241  124  271 1
 242  125  126 1
 243  125  272 1
 244  126  127 2
 245  126  128 1
 246  127  273 1
 247  128  274 1
 248  128  275 1
 249  129  130 2
 250  129  132 1
 251  129  140 1
 252  131  132 1
 253  131  276 1
 254  132  133 1
 255  132  277 1
 256  133  134 1
 257  133  278 1
 258  133  279 1
 259  134  135 ar
 260  134  139 ar
 261  135  136 ar
 262  135  280 1
 263  136  137 ar
 264  136  281 1
 265  137  138 ar
 266  137  282 1
 267  138  139 ar
 268  138  283 1
 269  139  284 1
 270  140  285 1
 271  141  142 2
 272  141  157 1
 273  143  144 1
 274  143  286 1
 275  143  287 1
 276  143  288 1
 277  144  145 1
 278  144  289 1
 279  144  290 1
 280  145  146 1
 281  145  291 1
 282  145  292 1
 283  146  147 1
 284  146  293 1
 285  146  294 1
 286  147  148 1
 287  147  295 1
 288  147  296 1
 289  148  149 1
 290  148  297 1
 291  148  298 1
 292  149  150 1
 293  149  299 1
 294  149  300 1
 295  150  151 1
 296  150  301 1
 297  150  302 1
 298  151  152 1
 299  151  303 1
 300  151  304 1
 301  152  153 1
 302  152  305 1
 303  152  306 1
 304  153  154 1
 305  153  307 1
 306  153  308 1
 307  154  155 1
 308  154  309 1
 309  154  310 1
 310  155  156 1
 311  155  311 1
 312  155  312 1
 313  156  157 1
 314  156  313 1
 315  156  314 1
 316  157  315 1
 317  157  316 1

#	End of record

