#	Name: ASD01880693
#	Creating user name:	WinNT
#	Creation time:	15. 06. 2019 19:41

#	Modifying user name:	WinNT
#	Modification time:	15. 06. 2019 19:41

#	Program:	/corina/corina34_cracker 3.40 0067  02.08.2006

@<TRIPOS>MOLECULE
ASD01880693
  38   40    0    0    0
SMALL
NO_CHARGES


@<TRIPOS>ATOM
   1 N1            -0.0158     1.3146     0.0093 N.ar    
   2 C2             0.0021    -0.0041     0.0020 C.ar    
   3 N3             1.1331    -0.6827    -0.0120 N.ar    
   4 C4             2.2995    -0.0573    -0.0198 C.ar    
   5 C5             2.3223     1.3277    -0.0130 C.ar    
   6 C6             1.1128     2.0079     0.0022 C.ar    
   7 C7             3.6293     2.0779    -0.0209 C.3     
   8 O8             4.7130     1.1465    -0.0354 O.3     
   9 C9             5.9684     1.6621    -0.0440 C.ar    
  10 C10            7.0692     0.8111    -0.0582 C.ar    
  11 C11            8.3385     1.3338    -0.0674 C.ar    
  12 C12            8.5335     2.7190    -0.0627 C.ar    
  13 C13            7.4244     3.5693    -0.0488 C.ar    
  14 C14            6.1532     3.0395    -0.0446 C.ar    
  15 C15            9.7120     0.7106    -0.0830 C.3     
  16 N16           10.6673     1.8244    -0.0866 N.am    
  17 C17            9.9831     2.9812    -0.0748 C.2     
  18 O18           10.4888     4.0869    -0.0746 O.2     
  19 Br19          -1.6371    -0.9470     0.0126 Br      
  20 C20            7.6192     5.0636    -0.0430 C.3     
  21 Cl21           1.0793     3.7435     0.0107 Cl      
  22 C22           12.6218     1.6585    -1.5474 C.3     
  23 C23           12.1266     1.6965    -0.1002 C.3     
  24 H24            3.2216    -0.6195    -0.0309 H       
  25 H25            3.6807     2.7089    -0.9083 H       
  26 H26            3.6966     2.6999     0.8716 H       
  27 H27            6.9252    -0.2593    -0.0616 H       
  28 H28            5.2965     3.6971    -0.0342 H       
  29 H29            9.8552     0.0970     0.8064 H       
  30 H30            9.8387     0.1054    -0.9807 H       
  31 H31            7.6573     5.4291    -1.0692 H       
  32 H32            6.7881     5.5363     0.4804 H       
  33 H33            8.5531     5.3063     0.4640 H       
  34 H34           12.1776     0.8059    -2.0611 H       
  35 H35           12.3330     2.5791    -2.0545 H       
  36 H36           13.7076     1.5633    -1.5575 H       
  37 H37           12.5709     2.5491     0.4135 H       
  38 H38           12.4155     0.7759     0.4069 H       
@<TRIPOS>BOND
   1    1    2 ar
   2    1    6 ar
   3    2    3 ar
   4    2   19 1
   5    3    4 ar
   6    4    5 ar
   7    4   24 1
   8    5    6 ar
   9    5    7 1
  10    6   21 1
  11    7    8 1
  12    7   25 1
  13    7   26 1
  14    8    9 1
  15    9   10 ar
  16    9   14 ar
  17   10   11 ar
  18   10   27 1
  19   11   12 ar
  20   11   15 1
  21   12   13 ar
  22   12   17 1
  23   13   14 ar
  24   13   20 1
  25   14   28 1
  26   15   16 1
  27   15   29 1
  28   15   30 1
  29   16   17 am
  30   16   23 1
  31   17   18 2
  32   20   31 1
  33   20   32 1
  34   20   33 1
  35   22   23 1
  36   22   34 1
  37   22   35 1
  38   22   36 1
  39   23   37 1
  40   23   38 1

#	End of record

