#	Name: ASD01150698
#	Creating user name:	WinNT
#	Creation time:	15. 06. 2019 19:04

#	Modifying user name:	WinNT
#	Modification time:	15. 06. 2019 19:04

#	Program:	/corina/corina34_cracker 3.40 0067  02.08.2006

@<TRIPOS>MOLECULE
ASD01150698
  40   44    0    0    0
SMALL
NO_CHARGES


@<TRIPOS>ATOM
   1 C1            -0.0734     1.3309    -0.0403 C.2     
   2 O2            -0.3590     1.0356     1.1017 O.2     
   3 C3             3.3213     3.7148    -0.8209 C.ar    
   4 C4             3.5012     2.3362    -0.7711 C.ar    
   5 C5             2.3747     1.5069    -0.5084 C.ar    
   6 C6             1.1222     2.1301    -0.3123 C.ar    
   7 C7             1.0453     3.5283    -0.3836 C.ar    
   8 N8             2.1082     4.2516    -0.6267 N.ar    
   9 C9             4.8906     1.9359    -1.0087 C.2     
  10 C10            5.7134     2.9525    -1.2249 C.2     
  11 S11            4.8594     4.4931    -1.1635 S.3     
  12 C12            7.1344     2.4488    -1.4626 C.3     
  13 C13            6.9720     0.9533    -1.7996 C.3     
  14 C14            5.6556     0.6141    -1.0729 C.3     
  15 C15           -0.2833     4.2090    -0.1775 C.3     
  16 O16            2.8530    -0.7641    -1.4659 O.3     
  17 C17            2.5104     0.0455    -0.4437 C.2     
  18 C18            2.3121    -0.7300     0.6618 C.2     
  19 C19            2.5495    -2.0593     0.2710 C.2     
  20 C20            2.8777    -2.0354    -1.0383 C.2     
  21 C21           -0.9464     0.8694    -1.1787 C.3     
  22 C22           -1.7994    -0.3806    -0.9531 C.3     
  23 C23           -2.4610     0.9980    -1.0045 C.3     
  24 H24            7.5898     2.9789    -2.2991 H       
  25 H25            7.7360     2.5715    -0.5619 H       
  26 H26            6.8746     0.8034    -2.8748 H       
  27 H27            7.8010     0.3701    -1.3988 H       
  28 H28            5.8613     0.2458    -0.0678 H       
  29 H29            5.0891    -0.1248    -1.6398 H       
  30 H30           -0.4477     4.3699     0.8880 H       
  31 H31           -0.2839     5.1688    -0.6941 H       
  32 H32           -1.0794     3.5808    -0.5771 H       
  33 H33            2.0282    -0.3885     1.6462 H       
  34 H34            2.4821    -2.9348     0.8997 H       
  35 H35            3.1201    -2.8976    -1.6419 H       
  36 H36           -0.5391     1.0273    -2.1773 H       
  37 H37           -1.9536    -1.0448    -1.8034 H       
  38 H38           -1.7291    -0.8691     0.0187 H       
  39 H39           -2.8260     1.4164    -0.0665 H       
  40 H40           -3.0505     1.2407    -1.8887 H       
@<TRIPOS>BOND
   1    1    2 2
   2    1    6 1
   3    1   21 1
   4    3    4 ar
   5    3    8 ar
   6    3   11 1
   7    4    5 ar
   8    4    9 1
   9    5    6 ar
  10    5   17 1
  11    6    7 ar
  12    7    8 ar
  13    7   15 1
  14    9   10 2
  15    9   14 1
  16   10   11 1
  17   10   12 1
  18   12   13 1
  19   12   24 1
  20   12   25 1
  21   13   14 1
  22   13   26 1
  23   13   27 1
  24   14   28 1
  25   14   29 1
  26   15   30 1
  27   15   31 1
  28   15   32 1
  29   16   17 1
  30   16   20 1
  31   17   18 2
  32   18   19 1
  33   18   33 1
  34   19   20 2
  35   19   34 1
  36   20   35 1
  37   21   22 1
  38   21   23 1
  39   21   36 1
  40   22   23 1
  41   22   37 1
  42   22   38 1
  43   23   39 1
  44   23   40 1

#	End of record

