#	Name: ASD01811969
#	Creating user name:	WinNT
#	Creation time:	15. 06. 2019 19:27

#	Modifying user name:	WinNT
#	Modification time:	15. 06. 2019 19:27

#	Program:	/corina/corina34_cracker 3.40 0067  02.08.2006

@<TRIPOS>MOLECULE
ASD01811969
  37   39    0    0    0
SMALL
NO_CHARGES


@<TRIPOS>ATOM
   1 C1            -0.0167     1.3808     0.0096 C.ar    
   2 C2             0.0021    -0.0041     0.0020 C.ar    
   3 C3             1.2054    -0.6750    -0.0126 C.ar    
   4 C4             2.4159     0.0313    -0.0193 C.ar    
   5 C5             2.3949     1.4228    -0.0129 C.ar    
   6 C6             1.1663     2.0871     0.0021 C.ar    
   7 C7             3.6617    -0.7588    -0.0305 C.2     
   8 C8             4.7448    -0.4567     0.6654 C.2     
   9 C9             4.8005     0.7651     1.5428 C.3     
  10 C10            4.6459     1.9858     0.6758 C.2     
  11 N11            3.5365     2.2103    -0.0231 N.am    
  12 S12            5.8457     3.0395     0.5930 S.2     
  13 C13            3.7019    -1.9740    -0.8791 C.ar    
  14 C14            3.6191    -3.2372    -0.2966 C.ar    
  15 C15            3.6565    -4.3651    -1.0913 C.ar    
  16 C16            3.7765    -4.2448    -2.4641 C.ar    
  17 C17            3.8597    -2.9948    -3.0500 C.ar    
  18 C18            3.8171    -1.8573    -2.2657 C.ar    
  19 Cl19          -1.4888    -0.8934     0.0114 Cl      
  20 F20            3.8984    -0.6364    -2.8382 F       
  21 C21            3.6644     0.7147     2.5664 C.3     
  22 C22            3.7956     1.8743     3.5200 C.2     
  23 O23            2.9027     2.0339     4.5094 O.3     
  24 O24            4.7045     2.6603     3.3938 O.2     
  25 H25           -0.9595     1.9075     0.0170 H       
  26 H26            1.2159    -1.7550    -0.0185 H       
  27 H27            1.1433     3.1668     0.0081 H       
  28 H28            5.6089    -1.1014     0.6030 H       
  29 H29            5.7600     0.8017     2.0587 H       
  30 H30            3.5249     2.9965    -0.5912 H       
  31 H31            3.5261    -3.3335     0.7750 H       
  32 H32            3.5923    -5.3442    -0.6401 H       
  33 H33            3.8056    -5.1308    -3.0810 H       
  34 H34            3.9540    -2.9071    -4.1223 H       
  35 H35            2.7067     0.7759     2.0495 H       
  36 H36            3.7179    -0.2211     3.1228 H       
  37 H37            3.0282     2.7924     5.0959 H       
@<TRIPOS>BOND
   1    1    2 ar
   2    1    6 ar
   3    1   25 1
   4    2    3 ar
   5    2   19 1
   6    3    4 ar
   7    3   26 1
   8    4    5 ar
   9    4    7 1
  10    5    6 ar
  11    5   11 1
  12    6   27 1
  13    7    8 2
  14    7   13 1
  15    8    9 1
  16    8   28 1
  17    9   10 1
  18    9   21 1
  19    9   29 1
  20   10   11 am
  21   10   12 2
  22   11   30 1
  23   13   14 ar
  24   13   18 ar
  25   14   15 ar
  26   14   31 1
  27   15   16 ar
  28   15   32 1
  29   16   17 ar
  30   16   33 1
  31   17   18 ar
  32   17   34 1
  33   18   20 1
  34   21   22 1
  35   21   35 1
  36   21   36 1
  37   22   23 1
  38   22   24 2
  39   23   37 1

#	End of record

