#	Name: ASD09116184
#	Creating user name:	WinNT
#	Creation time:	15. 06. 2019 21:21

#	Modifying user name:	WinNT
#	Modification time:	15. 06. 2019 21:21

#	Program:	/corina/corina34_cracker 3.40 0067  02.08.2006

@<TRIPOS>MOLECULE
ASD09116184
  52   57    0    0    0
SMALL
NO_CHARGES


@<TRIPOS>ATOM
   1 N1            -0.5878     3.8320    -0.5517 N.2     
   2 C2            -1.1933     4.8441    -1.4352 C.3     
   3 C3             0.7051     3.9610    -0.6750 C.2     
   4 N4             1.0534     4.9390    -1.5359 N.2     
   5 C5             0.0088     5.5341    -2.0500 C.2     
   6 N6             1.6189     3.1796     0.0037 N.pl3   
   7 C7             2.9864     3.4547    -0.0982 C.ar    
   8 C8             3.4359     4.7582    -0.2990 C.ar    
   9 C9             3.9238     2.4346     0.0046 C.ar    
  10 N10            5.2113     2.6871    -0.0956 N.ar    
  11 C11            5.6748     3.9117    -0.2978 C.ar    
  12 C12            4.7991     4.9728    -0.3926 C.ar    
  13 N13            0.0020     6.5561    -2.9474 N.pl3   
  14 C14           -2.0314     4.1863    -2.5011 C.ar    
  15 C15           -3.2857     4.6982    -2.8304 C.ar    
  16 N16           -1.5858     3.1196    -3.1406 N.ar    
  17 C17           -2.3140     2.5357    -4.0772 C.ar    
  18 N18           -3.5010     2.9736    -4.4204 N.ar    
  19 C19           -4.0376     4.0604    -3.8269 C.ar    
  20 Cl20          -1.6741     1.1374    -4.8827 Cl      
  21 C21           -5.2761     4.6842    -4.0449 C.2     
  22 C22           -5.5245     5.7481    -3.2983 C.2     
  23 S23           -4.1849     6.0756    -2.2117 S.3     
  24 C24           -6.2607     4.1746    -5.0656 C.3     
  25 C25            7.1637     4.1102    -0.4296 C.3     
  26 C26            7.5146     5.5961    -0.4791 C.3     
  27 N27            6.5659     6.2638    -1.4078 N.3     
  28 C28            5.3240     6.3798    -0.5904 C.3     
  29 C29            7.2583     6.2518     0.8902 C.3     
  30 C30            5.8397     6.8418     0.7982 C.3     
  31 C31            6.3377     5.4450    -2.6058 C.3     
  32 H32           -1.7914     5.5496    -0.8585 H       
  33 H33            1.3125     2.4398     0.5511 H       
  34 H34            2.7386     5.5790    -0.3797 H       
  35 H35            3.5913     1.4203     0.1693 H       
  36 H36            0.8396     6.9206    -3.2737 H       
  37 H37           -0.8405     6.9205    -3.2611 H       
  38 H38           -6.4300     6.3345    -3.3489 H       
  39 H39           -6.9270     3.4500    -4.5976 H       
  40 H40           -6.8458     5.0083    -5.4539 H       
  41 H41           -5.7215     3.6970    -5.8837 H       
  42 H42            7.6630     3.6526     0.4245 H       
  43 H43            7.5094     3.6299    -1.3450 H       
  44 H44            8.5451     5.7413    -0.8036 H       
  45 H45            4.5853     7.0502    -1.0298 H       
  46 H46            7.3063     5.5047     1.6824 H       
  47 H47            7.9842     7.0444     1.0720 H       
  48 H48            5.8733     7.9300     0.8499 H       
  49 H49            5.2094     6.4407     1.5919 H       
  50 H50            5.9206     4.4814    -2.3133 H       
  51 H51            5.6398     5.9570    -3.2683 H       
  52 H52            7.2834     5.2891    -3.1249 H       
@<TRIPOS>BOND
   1    1    2 1
   2    1    3 2
   3    2   14 1
   4    2    5 1
   5    2   32 1
   6    3    4 1
   7    3    6 1
   8    4    5 2
   9    5   13 1
  10    6    7 1
  11    6   33 1
  12    7    8 ar
  13    7    9 ar
  14    8   12 ar
  15    8   34 1
  16    9   10 ar
  17    9   35 1
  18   10   11 ar
  19   11   12 ar
  20   11   25 1
  21   12   28 1
  22   13   36 1
  23   13   37 1
  24   14   15 ar
  25   14   16 ar
  26   15   19 ar
  27   15   23 1
  28   16   17 ar
  29   17   18 ar
  30   17   20 1
  31   18   19 ar
  32   19   21 1
  33   21   22 2
  34   21   24 1
  35   22   23 1
  36   22   38 1
  37   24   39 1
  38   24   40 1
  39   24   41 1
  40   25   26 1
  41   25   42 1
  42   25   43 1
  43   26   27 1
  44   26   29 1
  45   26   44 1
  46   27   28 1
  47   27   31 1
  48   28   30 1
  49   28   45 1
  50   29   30 1
  51   29   46 1
  52   29   47 1
  53   30   48 1
  54   30   49 1
  55   31   50 1
  56   31   51 1
  57   31   52 1

#	End of record

