#	Name: ASD01180205
#	Creating user name:	WinNT
#	Creation time:	15. 06. 2019 19:07

#	Modifying user name:	WinNT
#	Modification time:	15. 06. 2019 19:07

#	Program:	/corina/corina34_cracker 3.40 0067  02.08.2006

@<TRIPOS>MOLECULE
ASD01180205
  71   73    0    0    0
SMALL
NO_CHARGES


@<TRIPOS>ATOM
   1 C1             0.3000     5.2788    -0.0291 C.ar    
   2 C2             0.2789     3.9434    -0.3631 C.ar    
   3 C3             1.4113     3.3438    -0.9146 C.ar    
   4 C4             2.5663     4.0964    -1.1283 C.ar    
   5 C5             2.5895     5.4320    -0.7955 C.ar    
   6 C6             1.4560     6.0336    -0.2431 C.ar    
   7 C7             1.3874     1.9053    -1.2734 C.ar    
   8 C8             2.5173     1.3029    -1.8247 C.ar    
   9 C9             2.4894    -0.0364    -2.1563 C.ar    
  10 C10            1.3433    -0.7809    -1.9426 C.ar    
  11 C11            0.2191    -0.1885    -1.3959 C.ar    
  12 C12            0.2370     1.1488    -1.0555 C.ar    
  13 C13            1.3190    -2.2429    -2.3073 C.3     
  14 C14            1.5327    -3.0861    -1.0486 C.3     
  15 N15            0.0232    -2.5759    -2.9040 N.pl3   
  16 C16           -0.0766    -3.6260    -3.8010 C.ar    
  17 N17           -1.2229    -3.8399    -4.4323 N.ar    
  18 C18           -1.3636    -4.8260    -5.2935 C.ar    
  19 C19           -0.2979    -5.6840    -5.5688 C.ar    
  20 C20            0.9271    -5.4807    -4.9148 C.ar    
  21 C21            1.0312    -4.4400    -4.0321 C.ar    
  22 C22           -0.4570    -6.7892    -6.5332 C.2     
  23 N23           -1.6378    -6.9760    -7.1554 N.am    
  24 O24            0.4773    -7.5316    -6.7666 O.2     
  25 C25           -1.7958    -8.0734    -8.1130 C.3     
  26 C26           -3.2203    -8.0623    -8.6710 C.3     
  27 C27           -3.3828    -9.1912    -9.6560 C.2     
  28 O28           -4.5588    -9.3772   -10.2757 O.3     
  29 O29           -2.4544    -9.9289    -9.8879 O.2     
  30 C30            2.9334    -2.8247    -0.4914 C.3     
  31 C31            3.0834    -3.5252     0.8606 C.3     
  32 C32            3.9798    -3.3683    -1.4663 C.3     
  33 C33            1.4796     7.4668     0.1140 C.2     
  34 O34            0.5518     8.1868    -0.2002 O.2     
  35 N35            2.5297     7.9762     0.7880 N.am    
  36 C36            2.5117     9.3747     1.2239 C.3     
  37 C37            3.6892     7.1313     1.0848 C.3     
  38 H38           -0.5781     5.7438     0.3941 H       
  39 H39           -0.6147     3.3598    -0.1977 H       
  40 H40            3.4426     3.6310    -1.5546 H       
  41 H41            3.4839     6.0144    -0.9607 H       
  42 H42            3.4125     1.8833    -1.9923 H       
  43 H43            3.3640    -0.5041    -2.5838 H       
  44 H44           -0.6731    -0.7745    -1.2316 H       
  45 H45           -0.6411     1.6102    -0.6284 H       
  46 H46            2.1134    -2.4518    -3.0238 H       
  47 H47            0.7877    -2.8167    -0.3000 H       
  48 H48            1.4320    -4.1425    -1.2976 H       
  49 H49           -0.7649    -2.0608    -2.6708 H       
  50 H50           -2.3113    -4.9722    -5.7904 H       
  51 H51            1.7699    -6.1281    -5.1071 H       
  52 H52            1.9601    -4.2567    -3.5126 H       
  53 H53           -2.3831    -6.3837    -6.9692 H       
  54 H54           -1.0847    -7.9482    -8.9296 H       
  55 H55           -1.6094    -9.0230    -7.6113 H       
  56 H56           -3.9314    -8.1875    -7.8544 H       
  57 H57           -3.4067    -7.1127    -9.1727 H       
  58 H58           -4.6149   -10.1143   -10.8990 H       
  59 H59            3.0790    -1.7521    -0.3629 H       
  60 H60            2.9377    -4.5978     0.7321 H       
  61 H61            4.0813    -3.3390     1.2576 H       
  62 H62            2.3379    -3.1380     1.5551 H       
  63 H63            3.8753    -4.4504    -1.5453 H       
  64 H64            3.8320    -2.9164    -2.4471 H       
  65 H65            4.9776    -3.1254    -1.1009 H       
  66 H66            2.0741     9.4392     2.2201 H       
  67 H67            3.5308     9.7606     1.2490 H       
  68 H68            1.9167     9.9649     0.5269 H       
  69 H69            3.4816     6.1073     0.7742 H       
  70 H70            4.5590     7.5055     0.5450 H       
  71 H71            3.8895     7.1525     2.1560 H       
@<TRIPOS>BOND
   1    1    2 ar
   2    1    6 ar
   3    1   38 1
   4    2    3 ar
   5    2   39 1
   6    3    4 ar
   7    3    7 1
   8    4    5 ar
   9    4   40 1
  10    5    6 ar
  11    5   41 1
  12    6   33 1
  13    7    8 ar
  14    7   12 ar
  15    8    9 ar
  16    8   42 1
  17    9   10 ar
  18    9   43 1
  19   10   11 ar
  20   10   13 1
  21   11   12 ar
  22   11   44 1
  23   12   45 1
  24   13   14 1
  25   13   15 1
  26   13   46 1
  27   14   30 1
  28   14   47 1
  29   14   48 1
  30   15   16 1
  31   15   49 1
  32   16   17 ar
  33   16   21 ar
  34   17   18 ar
  35   18   19 ar
  36   18   50 1
  37   19   20 ar
  38   19   22 1
  39   20   21 ar
  40   20   51 1
  41   21   52 1
  42   22   23 am
  43   22   24 2
  44   23   25 1
  45   23   53 1
  46   25   26 1
  47   25   54 1
  48   25   55 1
  49   26   27 1
  50   26   56 1
  51   26   57 1
  52   27   28 1
  53   27   29 2
  54   28   58 1
  55   30   31 1
  56   30   32 1
  57   30   59 1
  58   31   60 1
  59   31   61 1
  60   31   62 1
  61   32   63 1
  62   32   64 1
  63   32   65 1
  64   33   34 2
  65   33   35 am
  66   35   36 1
  67   35   37 1
  68   36   66 1
  69   36   67 1
  70   36   68 1
  71   37   69 1
  72   37   70 1
  73   37   71 1

#	End of record

