#	Name: ASD01884189
#	Creating user name:	WinNT
#	Creation time:	15. 06. 2019 19:47

#	Modifying user name:	WinNT
#	Modification time:	15. 06. 2019 19:47

#	Program:	/corina/corina34_cracker 3.40 0067  02.08.2006

@<TRIPOS>MOLECULE
ASD01884189
  37   40    0    0    0
SMALL
NO_CHARGES


@<TRIPOS>ATOM
   1 C1            -0.0180     1.4793     0.0102 C.ar    
   2 C2             0.0021    -0.0041     0.0020 C.ar    
   3 C3            -0.7528    -0.7256     0.9271 C.ar    
   4 C4            -0.7391    -2.0984     0.9247 C.ar    
   5 C5             0.0339    -2.8106    -0.0066 C.ar    
   6 C6             0.7843    -2.0746    -0.9264 C.ar    
   7 C7             0.7705    -0.6936    -0.9331 C.ar    
   8 N8             0.1541    -4.1822    -0.1377 N.am    
   9 C9             0.9479    -4.6677    -1.0968 C.2     
  10 S10            1.6246    -3.2611    -1.9344 S.3     
  11 C11           -0.5739    -5.0849     0.7575 C.3     
  12 C12           -1.9414    -5.4092     0.1529 C.3     
  13 C13           -2.8115    -6.4344     0.8830 C.3     
  14 O14            1.1624    -5.8398    -1.3451 O.2     
  15 C15           -3.1812    -4.9502     0.9231 C.3     
  16 F16           -2.9776    -4.2661     2.1263 F       
  17 F17           -4.2908    -4.5406     0.1761 F       
  18 C18            1.1747     2.2053     0.0027 C.ar    
  19 N19            1.1564     3.5243     0.0104 N.ar    
  20 C20            0.0258     4.2043     0.0249 C.ar    
  21 C21           -1.1957     3.5571     0.0331 C.ar    
  22 C22           -1.2303     2.1727     0.0196 C.ar    
  23 F23            2.3569     1.5516    -0.0122 F       
  24 C24           -2.4770     4.3502     0.0503 C.3     
  25 H25           -1.3542    -0.1986     1.6531 H       
  26 H26           -1.3306    -2.6381     1.6493 H       
  27 H27            1.3606    -0.1497    -1.6559 H       
  28 H28           -0.0055    -6.0061     0.8855 H       
  29 H29           -0.7098    -4.6042     1.7263 H       
  30 H30           -1.9901    -5.3922    -0.9359 H       
  31 H31           -3.4328    -7.0915     0.2746 H       
  32 H32           -2.4096    -6.8777     1.7941 H       
  33 H33            0.0551     5.2839     0.0309 H       
  34 H34           -2.1712     1.6425     0.0253 H       
  35 H35           -2.7960     4.5474    -0.9732 H       
  36 H36           -3.2493     3.7817     0.5684 H       
  37 H37           -2.3125     5.2952     0.5680 H       
@<TRIPOS>BOND
   1    1    2 1
   2    1   18 ar
   3    1   22 ar
   4    2    3 ar
   5    2    7 ar
   6    3    4 ar
   7    3   25 1
   8    4    5 ar
   9    4   26 1
  10    5    6 ar
  11    5    8 1
  12    6    7 ar
  13    6   10 1
  14    7   27 1
  15    8    9 am
  16    8   11 1
  17    9   10 1
  18    9   14 2
  19   11   12 1
  20   11   28 1
  21   11   29 1
  22   12   13 1
  23   12   15 1
  24   12   30 1
  25   13   15 1
  26   13   31 1
  27   13   32 1
  28   15   16 1
  29   15   17 1
  30   18   19 ar
  31   18   23 1
  32   19   20 ar
  33   20   21 ar
  34   20   33 1
  35   21   22 ar
  36   21   24 1
  37   22   34 1
  38   24   35 1
  39   24   36 1
  40   24   37 1

#	End of record

