#	Name: ASD01900612
#	Creating user name:	WinNT
#	Creation time:	15. 06. 2019 19:52

#	Modifying user name:	WinNT
#	Modification time:	15. 06. 2019 19:52

#	Program:	/corina/corina34_cracker 3.40 0067  02.08.2006

@<TRIPOS>MOLECULE
ASD01900612
  40   43    0    0    0
SMALL
NO_CHARGES


@<TRIPOS>ATOM
   1 C1            -0.0165     1.3652     0.0095 C.2     
   2 N2             0.0021    -0.0041     0.0020 N.pl3   
   3 C3             1.3258    -0.3941    -0.0127 C.ar    
   4 C4             2.0842     0.7910    -0.0136 C.ar    
   5 N5             1.2096     1.8254     0.0003 N.2     
   6 C6             3.4810     0.7139    -0.0269 C.ar    
   7 C7             4.0957    -0.5055    -0.0390 C.ar    
   8 C8             3.3474    -1.6766    -0.0381 C.ar    
   9 C9             1.9674    -1.6247    -0.0251 C.ar    
  10 C10           -1.2386     2.1997     0.0201 C.ar    
  11 C11           -1.1270     3.5896     0.0271 C.ar    
  12 C12           -2.2794     4.3566     0.0365 C.ar    
  13 C13           -3.5063     3.7085     0.0386 C.ar    
  14 C14           -3.5436     2.3254     0.0313 C.ar    
  15 N15           -2.4326     1.6190     0.0173 N.ar    
  16 F16            3.9739    -2.8735    -0.0506 F       
  17 S17            5.8554    -0.5949    -0.0563 S.o2    
  18 O18            6.1511    -1.4715    -1.1349 O.2     
  19 O19            6.2750     0.7625    -0.0793 O.2     
  20 C20            6.2850    -1.3673     1.5278 C.3     
  21 C21            7.7825    -1.4997     1.6323 C.ar    
  22 C22            8.5302    -0.4785     2.1916 C.ar    
  23 C23            9.9047    -0.6010     2.2876 C.ar    
  24 C24           10.5306    -1.7434     1.8248 C.ar    
  25 C25            9.7832    -2.7629     1.2659 C.ar    
  26 C26            8.4088    -2.6435     1.1748 C.ar    
  27 Cl27           7.7436     0.9561     2.7720 Cl      
  28 H28           -0.7707    -0.5903     0.0067 H       
  29 H29            4.0723     1.6176    -0.0281 H       
  30 H30            1.3902    -2.5375    -0.0240 H       
  31 H31           -0.1554     4.0611     0.0256 H       
  32 H32           -2.2247     5.4352     0.0424 H       
  33 H33           -4.4237     4.2784     0.0462 H       
  34 H34           -4.4971     1.8183     0.0329 H       
  35 H35            5.9171    -0.7477     2.3457 H       
  36 H36            5.8279    -2.3551     1.5862 H       
  37 H37           10.4889     0.1959     2.7237 H       
  38 H38           11.6037    -1.8391     1.8998 H       
  39 H39           10.2727    -3.6550     0.9038 H       
  40 H40            7.8249    -3.4424     0.7420 H       
@<TRIPOS>BOND
   1    1    2 1
   2    1    5 2
   3    1   10 1
   4    2    3 1
   5    2   28 1
   6    3    4 ar
   7    3    9 ar
   8    4    5 1
   9    4    6 ar
  10    6    7 ar
  11    6   29 1
  12    7    8 ar
  13    7   17 1
  14    8    9 ar
  15    8   16 1
  16    9   30 1
  17   10   11 ar
  18   10   15 ar
  19   11   12 ar
  20   11   31 1
  21   12   13 ar
  22   12   32 1
  23   13   14 ar
  24   13   33 1
  25   14   15 ar
  26   14   34 1
  27   17   18 2
  28   17   19 2
  29   17   20 1
  30   20   21 1
  31   20   35 1
  32   20   36 1
  33   21   22 ar
  34   21   26 ar
  35   22   23 ar
  36   22   27 1
  37   23   24 ar
  38   23   37 1
  39   24   25 ar
  40   24   38 1
  41   25   26 ar
  42   25   39 1
  43   26   40 1

#	End of record

