#	Name: ASD05490229
#	Creating user name:	WinNT
#	Creation time:	15. 06. 2019 21:01

#	Modifying user name:	WinNT
#	Modification time:	15. 06. 2019 21:01

#	Program:	/corina/corina34_cracker 3.40 0067  02.08.2006

@<TRIPOS>MOLECULE
ASD05490229
  62   65    0    0    0
SMALL
NO_CHARGES


@<TRIPOS>ATOM
   1 N1            -0.0140     1.3250    -0.0022 N.ar    
   2 C2             0.0027    -0.0004    -0.0090 C.ar    
   3 C3             1.2014    -0.7004    -0.0181 C.ar    
   4 C4             2.3965     0.0114    -0.0208 C.ar    
   5 C5             2.3407     1.4059    -0.0170 C.ar    
   6 C6             1.1051     2.0390    -0.0059 C.ar    
   7 N7             3.6203    -0.6462    -0.0228 N.3     
   8 C8             3.4734    -2.0304    -0.4923 C.3     
   9 C9             4.7942    -2.7454    -0.3692 C.ar    
  10 C10            5.1097    -3.4186     0.7960 C.ar    
  11 C11            6.3214    -4.0746     0.9089 C.ar    
  12 C12            7.2172    -4.0576    -0.1436 C.ar    
  13 C13            6.9013    -3.3850    -1.3094 C.ar    
  14 C14            5.6880    -2.7329    -1.4239 C.ar    
  15 N15            7.6201    -4.5124    -3.3385 N.3     
  16 C16            8.3910    -4.4001    -4.5903 C.3     
  17 C17            9.2507    -5.6756    -4.7138 C.3     
  18 C18            8.4967    -6.6934    -3.8180 C.3     
  19 C19            7.9821    -5.7831    -2.6751 C.3     
  20 N20            1.0395     3.4298     0.0009 N.pl3   
  21 N21           -1.2002    -0.7010    -0.0065 N.pl3   
  22 C22           -1.1946    -2.1660    -0.0140 C.3     
  23 C23           -2.6352    -2.6815    -0.0094 C.3     
  24 C24           -2.6294    -4.2115    -0.0172 C.3     
  25 C25           -4.0699    -4.7270    -0.0125 C.3     
  26 N26            3.5369     2.1457    -0.0281 N.am    
  27 C27            4.6286     0.0714    -0.8097 C.3     
  28 C28            4.6770     1.5196    -0.3968 C.2     
  29 O29            5.7315     2.1195    -0.3953 O.2     
  30 C30            7.8781    -3.3661    -2.4568 C.3     
  31 H31            1.2061    -1.7804    -0.0228 H       
  32 H32            2.7254    -2.5420     0.1134 H       
  33 H33            3.1570    -2.0286    -1.5354 H       
  34 H34            4.4097    -3.4319     1.6183 H       
  35 H35            6.5682    -4.6000     1.8196 H       
  36 H36            8.1641    -4.5694    -0.0551 H       
  37 H37            5.4412    -2.2075    -2.3347 H       
  38 H38            7.7111    -4.3275    -5.4392 H       
  39 H39            9.0347    -3.5213    -4.5519 H       
  40 H40            9.2819    -6.0209    -5.7472 H       
  41 H41           10.2574    -5.5001    -4.3345 H       
  42 H42            7.6668    -7.1491    -4.3580 H       
  43 H43            9.1762    -7.4547    -3.4348 H       
  44 H44            8.7687    -5.6164    -1.9393 H       
  45 H45            7.1063    -6.2269    -2.2017 H       
  46 H46            1.8558     3.9539    -0.0022 H       
  47 H47            0.1776     3.8747     0.0086 H       
  48 H48           -2.0421    -0.2192     0.0002 H       
  49 H49           -0.6839    -2.5228    -0.9084 H       
  50 H50           -0.6750    -2.5319     0.8715 H       
  51 H51           -3.1459    -2.3247     0.8850 H       
  52 H52           -3.1549    -2.3156    -0.8949 H       
  53 H53           -2.1186    -4.5683    -0.9115 H       
  54 H54           -2.1097    -4.5773     0.8684 H       
  55 H55           -4.5806    -4.3701     0.8819 H       
  56 H56           -4.5896    -4.3611    -0.8981 H       
  57 H57           -4.0657    -5.8170    -0.0181 H       
  58 H58            3.5436     3.0828     0.2225 H       
  59 H59            5.6055    -0.3836    -0.6459 H       
  60 H60            4.3749     0.0058    -1.8677 H       
  61 H61            7.7592    -2.4405    -3.0200 H       
  62 H62            8.8950    -3.4274    -2.0692 H       
@<TRIPOS>BOND
   1    1    2 ar
   2    1    6 ar
   3    2    3 ar
   4    2   21 1
   5    3    4 ar
   6    3   31 1
   7    4    5 ar
   8    4    7 1
   9    5    6 ar
  10    5   26 1
  11    6   20 1
  12    7    8 1
  13    7   27 1
  14    8    9 1
  15    8   32 1
  16    8   33 1
  17    9   10 ar
  18    9   14 ar
  19   10   11 ar
  20   10   34 1
  21   11   12 ar
  22   11   35 1
  23   12   13 ar
  24   12   36 1
  25   13   14 ar
  26   13   30 1
  27   14   37 1
  28   15   16 1
  29   15   19 1
  30   15   30 1
  31   16   17 1
  32   16   38 1
  33   16   39 1
  34   17   18 1
  35   17   40 1
  36   17   41 1
  37   18   19 1
  38   18   42 1
  39   18   43 1
  40   19   44 1
  41   19   45 1
  42   20   46 1
  43   20   47 1
  44   21   22 1
  45   21   48 1
  46   22   23 1
  47   22   49 1
  48   22   50 1
  49   23   24 1
  50   23   51 1
  51   23   52 1
  52   24   25 1
  53   24   53 1
  54   24   54 1
  55   25   55 1
  56   25   56 1
  57   25   57 1
  58   26   28 am
  59   26   58 1
  60   27   28 1
  61   27   59 1
  62   27   60 1
  63   28   29 2
  64   30   61 1
  65   30   62 1

#	End of record

