#	Name: ASD02500151
#	Creating user name:	WinNT
#	Creation time:	15. 06. 2019 20:22

#	Modifying user name:	WinNT
#	Modification time:	15. 06. 2019 20:22

#	Program:	/corina/corina34_cracker 3.40 0067  02.08.2006

@<TRIPOS>MOLECULE
ASD02500151
  62   66    0    0    0
SMALL
NO_CHARGES


@<TRIPOS>ATOM
   1 N1            -1.0791     0.2223     0.9328 N.am    
   2 C2            -0.8085    -0.6158    -0.2437 C.3     
   3 C3             0.1120     0.1582    -1.1955 C.3     
   4 N4             1.2471     0.6857    -0.4255 N.am    
   5 C5             0.9765     1.5238     0.7511 C.3     
   6 C6             0.0561     0.7498     1.7029 C.3     
   7 C7            -2.3455     0.5066     1.2958 C.2     
   8 O8            -2.5597     1.1299     2.3176 O.2     
   9 N9            -3.3746     0.1001     0.5262 N.am    
  10 C10            2.5137     0.4056    -0.7914 C.2     
  11 C11            3.6431     1.0339    -0.0802 C.ar    
  12 C12            4.8363     0.3285     0.1011 C.ar    
  13 C13            5.8880     0.9173     0.7650 C.ar    
  14 C14            5.7646     2.2142     1.2559 C.ar    
  15 C15            4.5775     2.9192     1.0774 C.ar    
  16 C16            3.5244     2.3381     0.4089 C.ar    
  17 O17            2.7254    -0.3651    -1.7078 O.2     
  18 S18            7.3000     4.3455     1.5365 S.o2    
  19 O19            6.1232     5.1417     1.5540 O.2     
  20 O20            8.4424     4.6294     2.3325 O.2     
  21 N21            6.8292     2.8064     1.9263 N.am    
  22 N22            9.7472     2.9818     0.4523 N.ar    
  23 C23           10.8446     2.3363     0.1403 C.ar    
  24 C24           11.3189     2.2864    -1.1689 C.ar    
  25 C25           10.6347     2.9206    -2.1664 C.ar    
  26 C26            9.4563     3.6124    -1.8277 C.ar    
  27 C27            8.7005     4.2882    -2.7987 C.ar    
  28 C28            7.5665     4.9463    -2.4308 C.ar    
  29 C29            7.1453     4.9573    -1.1029 C.ar    
  30 C30            7.8543     4.3135    -0.1358 C.ar    
  31 C31            9.0306     3.6234    -0.4761 C.ar    
  32 C32           -4.6935     0.3495     0.9305 C.ar    
  33 C33           -5.7183    -0.4986     0.5251 C.ar    
  34 C34           -7.0181    -0.2503     0.9259 C.ar    
  35 C35           -7.2986     0.8422     1.7296 C.ar    
  36 C36           -6.2792     1.6870     2.1336 C.ar    
  37 C37           -4.9777     1.4396     1.7403 C.ar    
  38 F38           -8.5693     1.0840     2.1197 F       
  39 F39           -5.4443    -1.5636    -0.2596 F       
  40 H40           -0.3191    -1.5382     0.0690 H       
  41 H41           -1.7452    -0.8492    -0.7499 H       
  42 H42            0.4777    -0.5103    -1.9749 H       
  43 H43           -0.4390     0.9834    -1.6468 H       
  44 H44            1.9132     1.7572     1.2573 H       
  45 H45            0.4871     2.4462     0.4384 H       
  46 H46           -0.3097     1.4183     2.4823 H       
  47 H47            0.6070    -0.0753     2.1541 H       
  48 H48           -3.2025    -0.3650    -0.3075 H       
  49 H49            4.9324    -0.6778    -0.2792 H       
  50 H50            6.8099     0.3727     0.9056 H       
  51 H51            4.4846     3.9249     1.4600 H       
  52 H52            2.6055     2.8874     0.2662 H       
  53 H53            7.2960     2.3181     2.6224 H       
  54 H54           11.3961     1.8301     0.9188 H       
  55 H55           12.2268     1.7469    -1.3947 H       
  56 H56           10.9881     2.8925    -3.1866 H       
  57 H57            9.0167     4.2865    -3.8313 H       
  58 H58            6.9856     5.4659    -3.1785 H       
  59 H59            6.2427     5.4871    -0.8362 H       
  60 H60           -7.8149    -0.9082     0.6118 H       
  61 H61           -6.5006     2.5384     2.7600 H       
  62 H62           -4.1826     2.0971     2.0595 H       
@<TRIPOS>BOND
   1    1    2 1
   2    1    6 1
   3    1    7 am
   4    2    3 1
   5    2   40 1
   6    2   41 1
   7    3    4 1
   8    3   42 1
   9    3   43 1
  10    4    5 1
  11    4   10 am
  12    5    6 1
  13    5   44 1
  14    5   45 1
  15    6   46 1
  16    6   47 1
  17    7    8 2
  18    7    9 am
  19    9   32 1
  20    9   48 1
  21   10   11 1
  22   10   17 2
  23   11   12 ar
  24   11   16 ar
  25   12   13 ar
  26   12   49 1
  27   13   14 ar
  28   13   50 1
  29   14   15 ar
  30   14   21 1
  31   15   16 ar
  32   15   51 1
  33   16   52 1
  34   18   19 2
  35   18   20 2
  36   18   21 am
  37   18   30 1
  38   21   53 1
  39   22   23 ar
  40   22   31 ar
  41   23   24 ar
  42   23   54 1
  43   24   25 ar
  44   24   55 1
  45   25   26 ar
  46   25   56 1
  47   26   27 ar
  48   26   31 ar
  49   27   28 ar
  50   27   57 1
  51   28   29 ar
  52   28   58 1
  53   29   30 ar
  54   29   59 1
  55   30   31 ar
  56   32   33 ar
  57   32   37 ar
  58   33   34 ar
  59   33   39 1
  60   34   35 ar
  61   34   60 1
  62   35   36 ar
  63   35   38 1
  64   36   37 ar
  65   36   61 1
  66   37   62 1

#	End of record

