#	Name: ASD01870121
#	Creating user name:	WinNT
#	Creation time:	15. 06. 2019 19:38

#	Modifying user name:	WinNT
#	Modification time:	15. 06. 2019 19:38

#	Program:	/corina/corina34_cracker 3.40 0067  02.08.2006

@<TRIPOS>MOLECULE
ASD01870121
  42   45    0    0    0
SMALL
NO_CHARGES


@<TRIPOS>ATOM
   1 C1             1.9731    -2.3066     1.4012 C.ar    
   2 C2             0.9520    -1.7648     0.6366 C.ar    
   3 C3             1.1840    -0.6019    -0.0807 C.ar    
   4 N4             2.3572    -0.0089    -0.0449 N.ar    
   5 C5             3.3615    -0.4950     0.6746 C.ar    
   6 C6             3.1991    -1.6601     1.4205 C.ar    
   7 C7             4.6655     0.2076     0.6842 C.2     
   8 N8             4.8286     1.3353    -0.0355 N.am    
   9 O9             5.5882    -0.2329     1.3411 O.2     
  10 C10            6.0283     2.0510     0.0477 C.ar    
  11 C11            7.2328     1.3738     0.1892 C.ar    
  12 C12            6.0153     3.4385    -0.0170 C.ar    
  13 C13            7.1989     4.1441     0.0646 C.ar    
  14 C14            8.4022     3.4671     0.2113 C.ar    
  15 C15            8.4159     2.0800     0.2707 C.ar    
  16 N16            9.6051     4.1847     0.2938 N.am    
  17 C17           10.1051     4.8812    -0.7344 C.2     
  18 C18           10.3444     4.2338     1.4088 C.2     
  19 C19           11.5683     5.0873     1.1574 C.3     
  20 C20           11.4044     5.5307    -0.3107 C.3     
  21 O21           10.0757     3.6822     2.4544 O.2     
  22 O22            9.5976     4.9761    -1.8313 O.2     
  23 C23           11.3726     6.5649     0.8123 C.3     
  24 C24           10.0205     7.1950     1.1526 C.3     
  25 C25           12.5841     7.4884     0.9550 C.3     
  26 H26            1.8158    -3.2096     1.9725 H       
  27 H27           -0.0150    -2.2444     0.5999 H       
  28 H28            0.3905    -0.1770    -0.6775 H       
  29 H29            4.0170    -2.0543     2.0054 H       
  30 H30            4.1145     1.6509    -0.6111 H       
  31 H31            7.2435     0.2949     0.2358 H       
  32 H32            5.0794     3.9651    -0.1316 H       
  33 H33            7.1889     5.2228     0.0139 H       
  34 H34            9.3521     1.5538     0.3849 H       
  35 H35           12.5203     4.7412     1.5600 H       
  36 H36           12.2330     5.5183    -1.0187 H       
  37 H37            9.3230     6.4152     1.4586 H       
  38 H38           10.1469     7.9091     1.9663 H       
  39 H39            9.6283     7.7094     0.2753 H       
  40 H40           12.7134     8.0625     0.0375 H       
  41 H41           12.4250     8.1698     1.7907 H       
  42 H42           13.4769     6.8906     1.1385 H       
@<TRIPOS>BOND
   1    1    2 ar
   2    1    6 ar
   3    1   26 1
   4    2    3 ar
   5    2   27 1
   6    3    4 ar
   7    3   28 1
   8    4    5 ar
   9    5    6 ar
  10    5    7 1
  11    6   29 1
  12    7    8 am
  13    7    9 2
  14    8   10 1
  15    8   30 1
  16   10   11 ar
  17   10   12 ar
  18   11   15 ar
  19   11   31 1
  20   12   13 ar
  21   12   32 1
  22   13   14 ar
  23   13   33 1
  24   14   15 ar
  25   14   16 1
  26   15   34 1
  27   16   17 am
  28   16   18 am
  29   17   22 2
  30   17   20 1
  31   18   21 2
  32   18   19 1
  33   19   20 1
  34   19   23 1
  35   19   35 1
  36   20   23 1
  37   20   36 1
  38   23   24 1
  39   23   25 1
  40   24   37 1
  41   24   38 1
  42   24   39 1
  43   25   40 1
  44   25   41 1
  45   25   42 1

#	End of record

