#	Name: ASD01883960
#	Creating user name:	WinNT
#	Creation time:	15. 06. 2019 19:47

#	Modifying user name:	WinNT
#	Modification time:	15. 06. 2019 19:47

#	Program:	/corina/corina34_cracker 3.40 0067  02.08.2006

@<TRIPOS>MOLECULE
ASD01883960
  59   62    0    0    0
SMALL
NO_CHARGES


@<TRIPOS>ATOM
   1 C1            -0.0170     1.4024     0.0098 C.2     
   2 C2             0.0021    -0.0041     0.0020 C.2     
   3 C3            -1.2248    -0.6972     0.0105 C.2     
   4 C4            -2.3888    -0.0096     0.0258 C.2     
   5 N5            -2.4080     1.3483     0.0332 N.am    
   6 C6            -1.2688     2.0651     0.0312 C.2     
   7 C7            -3.6953     2.0474     0.0493 C.3     
   8 C8            -4.1297     2.2830     1.4973 C.3     
   9 C9            -5.4741     3.0131     1.5141 C.3     
  10 C10           -6.5520     2.1109     0.9099 C.3     
  11 C11           -5.8485     3.3593     2.9566 C.3     
  12 O12           -1.3143     3.2834     0.0387 O.2     
  13 C13            1.2047     2.1493     0.0021 C.1     
  14 N14            2.1739     2.7419    -0.0040 N.1     
  15 C15            1.2827    -0.7398    -0.0152 C.ar    
  16 C16            1.6464    -1.5377     1.0730 C.ar    
  17 C17            2.8407    -2.2222     1.0541 C.ar    
  18 C18            3.6857    -2.1199    -0.0471 C.ar    
  19 C19            3.3264    -1.3257    -1.1322 C.ar    
  20 C20            2.1304    -0.6441    -1.1221 C.ar    
  21 N21            4.8928    -2.8129    -0.0631 N.3     
  22 C22            5.6257    -2.5654    -1.3126 C.3     
  23 C23            6.9785    -3.2790    -1.2574 C.3     
  24 N24            6.7623    -4.7182    -1.0532 N.3     
  25 C25            6.0294    -4.9656     0.1964 C.3     
  26 C26            4.6766    -4.2520     0.1411 C.3     
  27 C27            8.0362    -5.4495    -1.0700 C.3     
  28 C28            7.9959    -6.9460    -0.7541 C.3     
  29 C29            8.2483    -6.4732    -2.1871 C.3     
  30 H30           -1.2352    -1.7771     0.0045 H       
  31 H31           -3.3229    -0.5516     0.0318 H       
  32 H32           -3.5947     3.0056    -0.4604 H       
  33 H33           -4.4442     1.4414    -0.4606 H       
  34 H34           -4.2302     1.3248     2.0070 H       
  35 H35           -3.3807     2.8890     2.0073 H       
  36 H36           -5.3973     3.9295     0.9288 H       
  37 H37           -7.5098     2.6311     0.9218 H       
  38 H38           -6.2852     1.8643    -0.1178 H       
  39 H39           -6.6288     1.1946     1.4952 H       
  40 H40           -5.0806     4.0020     3.3871 H       
  41 H41           -6.8063     3.8794     2.9686 H       
  42 H42           -5.9253     2.4430     3.5419 H       
  43 H43            0.9915    -1.6169     1.9281 H       
  44 H44            3.1223    -2.8389     1.8947 H       
  45 H45            3.9845    -1.2477    -1.9850 H       
  46 H46            1.8522    -0.0280    -1.9643 H       
  47 H47            5.0477    -2.9463    -2.1547 H       
  48 H48            5.7844    -1.4940    -1.4350 H       
  49 H49            7.5117    -3.1208    -2.1948 H       
  50 H50            7.5672    -2.8790    -0.4318 H       
  51 H51            5.8707    -6.0370     0.3188 H       
  52 H52            6.6074    -4.5848     1.0384 H       
  53 H53            4.1434    -4.4102     1.0786 H       
  54 H54            4.0879    -4.6521    -0.6844 H       
  55 H55            8.9059    -4.8868    -0.7308 H       
  56 H56            8.8392    -7.3678    -0.2073 H       
  57 H57            7.0241    -7.3879    -0.5337 H       
  58 H58            7.4427    -6.6041    -2.9095 H       
  59 H59            9.2578    -6.5840    -2.5832 H       
@<TRIPOS>BOND
   1    1    2 2
   2    1   13 1
   3    1    6 1
   4    2    3 1
   5    2   15 1
   6    3    4 2
   7    3   30 1
   8    4    5 1
   9    4   31 1
  10    5    7 1
  11    5    6 am
  12    6   12 2
  13    7    8 1
  14    7   32 1
  15    7   33 1
  16    8    9 1
  17    8   34 1
  18    8   35 1
  19    9   10 1
  20    9   11 1
  21    9   36 1
  22   10   37 1
  23   10   38 1
  24   10   39 1
  25   11   40 1
  26   11   41 1
  27   11   42 1
  28   13   14 3
  29   15   16 ar
  30   15   20 ar
  31   16   17 ar
  32   16   43 1
  33   17   18 ar
  34   17   44 1
  35   18   19 ar
  36   18   21 1
  37   19   20 ar
  38   19   45 1
  39   20   46 1
  40   21   22 1
  41   21   26 1
  42   22   23 1
  43   22   47 1
  44   22   48 1
  45   23   24 1
  46   23   49 1
  47   23   50 1
  48   24   25 1
  49   24   27 1
  50   25   26 1
  51   25   51 1
  52   25   52 1
  53   26   53 1
  54   26   54 1
  55   27   28 1
  56   27   29 1
  57   27   55 1
  58   28   29 1
  59   28   56 1
  60   28   57 1
  61   29   58 1
  62   29   59 1

#	End of record

