#	Name: ASD04590429
#	Creating user name:	WinNT
#	Creation time:	15. 06. 2019 20:50

#	Modifying user name:	WinNT
#	Modification time:	15. 06. 2019 20:50

#	Program:	/corina/corina34_cracker 3.40 0067  02.08.2006

@<TRIPOS>MOLECULE
ASD04590429
  56   60    0    0    0
SMALL
NO_CHARGES


@<TRIPOS>ATOM
   1 C1            -0.0167     1.3832     0.0096 C.ar    
   2 C2             0.0021    -0.0041     0.0020 C.ar    
   3 C3             2.4020     0.0223    -0.0203 C.ar    
   4 C4             2.3769     1.4283    -0.0129 C.ar    
   5 C5             1.1624     2.0986     0.0022 C.ar    
   6 N6             3.7040    -0.3552    -0.0352 N.2     
   7 C7             4.4709     0.7083    -0.0376 C.2     
   8 N8             3.6969     1.8375    -0.0242 N.pl3   
   9 C9             5.9482     0.6906    -0.0521 C.2     
  10 C10            6.7657    -0.4631    -0.0661 C.2     
  11 C11            8.0579    -0.0539    -0.0765 C.2     
  12 N12            8.0646     1.3050    -0.0695 N.pl3   
  13 N13            6.7360     1.7480    -0.0600 N.2     
  14 N14            6.3188    -1.7944    -0.0687 N.am    
  15 C15            7.2108    -2.8046    -0.0827 C.2     
  16 O16            8.4027    -2.5633    -0.0931 O.2     
  17 C17            6.7414    -4.2031    -0.0855 C.ar    
  18 C18            1.1969    -0.6870    -0.0126 C.ar    
  19 C19            4.9413    -5.7937    -0.0758 C.ar    
  20 C20            5.8577    -6.8321    -0.0897 C.ar    
  21 C21            7.2132    -6.5677    -0.0962 C.ar    
  22 C22            7.6657    -5.2570    -0.0941 C.ar    
  23 C23            5.3734    -4.4849    -0.0736 C.ar    
  24 C24           -1.2962    -0.7693     0.0103 C.3     
  25 N25           -1.7312    -1.0105    -1.3719 N.3     
  26 C26           -2.8597    -1.9518    -1.4124 C.3     
  27 C27           -0.6167    -1.4976    -2.1976 C.3     
  28 C28           -1.0980    -1.6784    -3.6397 C.3     
  29 O29           -2.2146    -2.5718    -3.6558 O.3     
  30 C30           -3.3186    -2.1280    -2.8624 C.3     
  31 O31            8.9969    -4.9957    -0.1009 O.3     
  32 C32            9.8787    -6.1202    -0.1101 C.3     
  33 H33           -0.9614     1.9066     0.0169 H       
  34 H34            1.1403     3.1784     0.0079 H       
  35 H35            4.0155     2.7537    -0.0232 H       
  36 H36            8.9276    -0.6941    -0.0878 H       
  37 H37            8.8529     1.8702    -0.0742 H       
  38 H38            5.3681    -1.9869    -0.0605 H       
  39 H39            1.2037    -1.7669    -0.0177 H       
  40 H40            3.8833    -6.0105    -0.0708 H       
  41 H41            5.5103    -7.8547    -0.0909 H       
  42 H42            7.9216    -7.3828    -0.1067 H       
  43 H43            4.6553    -3.6783    -0.0624 H       
  44 H44           -1.1524    -1.7232     0.5176 H       
  45 H45           -2.0561    -0.1898     0.5345 H       
  46 H46           -2.5450    -2.9149    -1.0107 H       
  47 H47           -3.6828    -1.5591    -0.8154 H       
  48 H48            0.1976    -0.7734    -2.1738 H       
  49 H49           -0.2660    -2.4535    -1.8084 H       
  50 H50           -1.3984    -0.7129    -4.0469 H       
  51 H51           -0.2909    -2.0935    -4.2434 H       
  52 H52           -4.1175    -2.8683    -2.9039 H       
  53 H53           -3.6836    -1.1756    -3.2469 H       
  54 H54            9.7037    -6.7264     0.7788 H       
  55 H55            9.6934    -6.7200    -1.0011 H       
  56 H56           10.9115    -5.7720    -0.1148 H       
@<TRIPOS>BOND
   1    1    2 ar
   2    1    5 ar
   3    1   33 1
   4    2   18 ar
   5    2   24 1
   6    3    4 ar
   7    3    6 1
   8    3   18 ar
   9    4    5 ar
  10    4    8 1
  11    5   34 1
  12    6    7 2
  13    7    8 1
  14    7    9 1
  15    8   35 1
  16    9   10 1
  17    9   13 2
  18   10   11 2
  19   10   14 1
  20   11   12 1
  21   11   36 1
  22   12   13 1
  23   12   37 1
  24   14   15 am
  25   14   38 1
  26   15   16 2
  27   15   17 1
  28   17   23 ar
  29   17   22 ar
  30   18   39 1
  31   19   20 ar
  32   19   23 ar
  33   19   40 1
  34   20   21 ar
  35   20   41 1
  36   21   22 ar
  37   21   42 1
  38   22   31 1
  39   23   43 1
  40   24   25 1
  41   24   44 1
  42   24   45 1
  43   25   26 1
  44   25   27 1
  45   26   30 1
  46   26   46 1
  47   26   47 1
  48   27   28 1
  49   27   48 1
  50   27   49 1
  51   28   29 1
  52   28   50 1
  53   28   51 1
  54   29   30 1
  55   30   52 1
  56   30   53 1
  57   31   32 1
  58   32   54 1
  59   32   55 1
  60   32   56 1

#	End of record

