#	Name: ASD01040052
#	Creating user name:	WinNT
#	Creation time:	15. 06. 2019 18:58

#	Modifying user name:	WinNT
#	Modification time:	15. 06. 2019 18:58

#	Program:	/corina/corina34_cracker 3.40 0067  02.08.2006

@<TRIPOS>MOLECULE
ASD01040052
  48   50    0    0    0
SMALL
NO_CHARGES


@<TRIPOS>ATOM
   1 C1            -0.0168     1.3901     0.0097 C.ar    
   2 C2             1.1687     2.0943     0.0021 C.ar    
   3 C3             2.3804     1.4165    -0.0135 C.ar    
   4 O4             3.5468     2.1132    -0.0209 O.3     
   5 C5             2.4026     0.0282    -0.0212 C.ar    
   6 C6             1.2205    -0.6818    -0.0137 C.ar    
   7 C7             0.0021    -0.0041     0.0020 C.ar    
   8 C8            -1.2708    -0.7643     0.0096 C.2     
   9 C9            -2.1748    -0.6849     1.1821 C.ar    
  10 C10           -3.4414    -0.1170     1.0504 C.ar    
  11 C11           -4.2799    -0.0450     2.1427 C.ar    
  12 C12           -3.8640    -0.5368     3.3727 C.ar    
  13 O13           -4.6926    -0.4644     4.4470 O.3     
  14 C14           -2.6034    -1.1029     3.5070 C.ar    
  15 C15           -1.7623    -1.1831     2.4173 C.ar    
  16 C16           -1.6038    -1.5226    -1.0422 C.2     
  17 C17           -0.6960    -1.6176    -2.2485 C.3     
  18 C18           -1.5236    -1.3280    -3.5051 C.3     
  19 C19           -2.8947    -2.3111    -1.0523 C.3     
  20 C20           -3.6469    -1.9978    -2.3499 C.3     
  21 C21           -2.7289    -2.2688    -3.5477 C.3     
  22 C22           -3.5042    -2.0434    -4.8474 C.3     
  23 C23           -4.6364    -3.0674    -4.9499 C.3     
  24 O24           -5.3605    -2.8569    -6.1637 O.3     
  25 H25           -0.9590     1.9179     0.0260 H       
  26 H26            1.1547     3.1742     0.0081 H       
  27 H27            3.8931     2.3098     0.8603 H       
  28 H28            3.3467    -0.4961    -0.0334 H       
  29 H29            1.2385    -1.7616    -0.0204 H       
  30 H30           -3.7652     0.2664     0.0941 H       
  31 H31           -5.2611     0.3948     2.0414 H       
  32 H32           -5.2661    -1.2356     4.5541 H       
  33 H33           -2.2826    -1.4843     4.4652 H       
  34 H34           -0.7835    -1.6275     2.5214 H       
  35 H35            0.1063    -0.8849    -2.1615 H       
  36 H36           -0.2741    -2.6207    -2.3110 H       
  37 H37           -1.8696    -0.2947    -3.4823 H       
  38 H38           -0.9076    -1.4857    -4.3904 H       
  39 H39           -2.6713    -3.3771    -1.0069 H       
  40 H40           -3.5064    -2.0256    -0.1965 H       
  41 H41           -4.5326    -2.6294    -2.4183 H       
  42 H42           -3.9466    -0.9498    -2.3524 H       
  43 H43           -2.3838    -3.3019    -3.5075 H       
  44 H44           -3.9230    -1.0371    -4.8508 H       
  45 H45           -2.8311    -2.1598    -5.6968 H       
  46 H46           -4.2177    -4.0737    -4.9464 H       
  47 H47           -5.3095    -2.9510    -4.1005 H       
  48 H48           -6.0950    -3.4720    -6.2953 H       
@<TRIPOS>BOND
   1    1    7 ar
   2    1    2 ar
   3    1   25 1
   4    2    3 ar
   5    2   26 1
   6    3    5 ar
   7    3    4 1
   8    4   27 1
   9    5   28 1
  10    5    6 ar
  11    6   29 1
  12    6    7 ar
  13    7    8 1
  14    8    9 1
  15    8   16 2
  16    9   15 ar
  17    9   10 ar
  18   10   11 ar
  19   10   30 1
  20   11   12 ar
  21   11   31 1
  22   12   13 1
  23   12   14 ar
  24   13   32 1
  25   14   33 1
  26   14   15 ar
  27   15   34 1
  28   16   17 1
  29   16   19 1
  30   17   18 1
  31   17   35 1
  32   17   36 1
  33   18   37 1
  34   18   38 1
  35   18   21 1
  36   19   20 1
  37   19   39 1
  38   19   40 1
  39   20   41 1
  40   20   42 1
  41   20   21 1
  42   21   22 1
  43   21   43 1
  44   22   44 1
  45   22   45 1
  46   22   23 1
  47   23   24 1
  48   23   46 1
  49   23   47 1
  50   24   48 1

#	End of record

