#	Name: ASD01412063
#	Creating user name:	WinNT
#	Creation time:	15. 06. 2019 19:20

#	Modifying user name:	WinNT
#	Modification time:	15. 06. 2019 19:20

#	Program:	/corina/corina34_cracker 3.40 0067  02.08.2006

@<TRIPOS>MOLECULE
ASD01412063
  60   64    0    0    0
SMALL
NO_CHARGES


@<TRIPOS>ATOM
   1 C1            -0.0169     1.3930     0.0097 C.ar    
   2 C2             0.0021    -0.0041     0.0020 C.ar    
   3 C3            -1.1818    -0.7242     0.0099 C.ar    
   4 C4            -2.3986    -0.0532     0.0256 C.ar    
   5 C5            -2.4070     1.3538     0.0332 C.ar    
   6 C6            -1.2054     2.0663     0.0304 C.ar    
   7 N7            -3.5852    -0.7560     0.0331 N.pl3   
   8 C8            -4.7829    -0.1563     0.0473 C.2     
   9 C9            -4.9170     1.2170     0.0560 C.2     
  10 C10           -3.7037     2.0511     0.0498 C.2     
  11 O11           -3.7700     3.2682     0.0574 O.2     
  12 C12           -6.2492     1.8369     0.0706 C.2     
  13 O13           -6.3676     3.1798     0.0790 O.3     
  14 O14           -7.2444     1.1389     0.0752 O.2     
  15 C15           -7.7142     3.7227     0.0933 C.3     
  16 C16           -7.6488     5.2282     0.1010 C.ar    
  17 C17           -7.6290     5.9251    -1.0928 C.ar    
  18 C18           -7.5690     7.3059    -1.0864 C.ar    
  19 C19           -7.5288     7.9907     0.1151 C.ar    
  20 C20           -7.5488     7.2928     1.3095 C.ar    
  21 C21           -7.6145     5.9122     1.3019 C.ar    
  22 C22           -3.5336    -2.2201     0.0247 C.3     
  23 C23           -3.5024    -2.7297     1.4426 C.ar    
  24 C24           -4.6846    -3.0056     2.1038 C.ar    
  25 C25           -4.6566    -3.4731     3.4042 C.ar    
  26 C26           -3.4451    -3.6649     4.0441 C.ar    
  27 C27           -2.2622    -3.3886     3.3818 C.ar    
  28 C28           -2.2913    -2.9266     2.0795 C.ar    
  29 Cl29          -3.4091    -4.2515     5.6776 Cl      
  30 F30            1.1457     2.0812     0.0023 F       
  31 Cl31          -7.4529     9.7250     0.1240 Cl      
  32 N32            1.2206    -0.6783    -0.0142 N.3     
  33 C33            1.3616    -1.5402     1.1685 C.3     
  34 C34            2.6846    -2.3056     1.0806 C.3     
  35 O35            3.7619    -1.3729     0.9589 O.3     
  36 C36            3.6569    -0.5179    -0.1827 C.3     
  37 C37            2.3438     0.2657    -0.1077 C.3     
  38 H38           -1.1588    -1.8039     0.0035 H       
  39 H39           -1.2161     3.1462     0.0366 H       
  40 H40           -5.6731    -0.7679     0.0518 H       
  41 H41           -8.2508     3.3868    -0.7940 H       
  42 H42           -8.2358     3.3771     0.9858 H       
  43 H43           -7.6599     5.3904    -2.0306 H       
  44 H44           -7.5531     7.8502    -2.0191 H       
  45 H45           -7.5175     7.8268     2.2477 H       
  46 H46           -7.6300     5.3673     2.2342 H       
  47 H47           -4.4151    -2.6118    -0.4828 H       
  48 H48           -2.6364    -2.5490    -0.4995 H       
  49 H49           -5.6303    -2.8555     1.6043 H       
  50 H50           -5.5803    -3.6883     3.9208 H       
  51 H51           -1.3161    -3.5382     3.8808 H       
  52 H52           -1.3680    -2.7108     1.5624 H       
  53 H53            1.3554    -0.9262     2.0691 H       
  54 H54            0.5333    -2.2478     1.2039 H       
  55 H55            2.8202    -2.9026     1.9824 H       
  56 H56            2.6694    -2.9599     0.2090 H       
  57 H57            4.4958     0.1780    -0.1946 H       
  58 H58            3.6700    -1.1202    -1.0911 H       
  59 H59            2.2325     0.8761    -1.0038 H       
  60 H60            2.3533     0.9085     0.7725 H       
@<TRIPOS>BOND
   1    1    2 ar
   2    1   30 1
   3    1    6 ar
   4    2    3 ar
   5    2   32 1
   6    3    4 ar
   7    3   38 1
   8    4    5 ar
   9    4    7 1
  10    5    6 ar
  11    5   10 1
  12    6   39 1
  13    7    8 1
  14    7   22 1
  15    8    9 2
  16    8   40 1
  17    9   10 1
  18    9   12 1
  19   10   11 2
  20   12   13 1
  21   12   14 2
  22   13   15 1
  23   15   16 1
  24   15   41 1
  25   15   42 1
  26   16   17 ar
  27   16   21 ar
  28   17   18 ar
  29   17   43 1
  30   18   19 ar
  31   18   44 1
  32   19   20 ar
  33   19   31 1
  34   20   21 ar
  35   20   45 1
  36   21   46 1
  37   22   23 1
  38   22   47 1
  39   22   48 1
  40   23   24 ar
  41   23   28 ar
  42   24   25 ar
  43   24   49 1
  44   25   26 ar
  45   25   50 1
  46   26   27 ar
  47   26   29 1
  48   27   28 ar
  49   27   51 1
  50   28   52 1
  51   32   33 1
  52   32   37 1
  53   33   34 1
  54   33   53 1
  55   33   54 1
  56   34   35 1
  57   34   55 1
  58   34   56 1
  59   35   36 1
  60   36   37 1
  61   36   57 1
  62   36   58 1
  63   37   59 1
  64   37   60 1

#	End of record

