#	Name: ASD01028801
#	Creating user name:	WinNT
#	Creation time:	15. 06. 2019 18:58

#	Modifying user name:	WinNT
#	Modification time:	15. 06. 2019 18:58

#	Program:	/corina/corina34_cracker 3.40 0067  02.08.2006

@<TRIPOS>MOLECULE
ASD01028801
  40   44    0    0    0
SMALL
NO_CHARGES


@<TRIPOS>ATOM
   1 N1            -0.0157     1.3066     0.0092 N.ar    
   2 C2             0.0021    -0.0041     0.0020 C.ar    
   3 C3             1.1967    -0.7211    -0.0128 C.ar    
   4 C4             2.3902    -0.0572    -0.0206 C.ar    
   5 C5             2.3672     1.3504    -0.0132 C.ar    
   6 C6             3.5535     2.1011    -0.0200 C.ar    
   7 C7             3.4892     3.4613    -0.0122 C.ar    
   8 C8             2.2611     4.1187     0.0030 C.ar    
   9 C9             1.0917     3.4224     0.0100 C.ar    
  10 C10            1.1167     2.0170     0.0022 C.ar    
  11 C11            4.7634     4.2659    -0.0195 C.3     
  12 C12            6.2393     5.2334    -3.2115 C.2     
  13 C13            7.2625     5.8883    -3.9237 C.2     
  14 C14            8.2560     6.5088    -3.2357 C.2     
  15 C15            8.2563     6.4927    -1.8231 C.2     
  16 N16            7.2998     5.8811    -1.1570 N.2     
  17 N17            6.2656     5.2348    -1.8371 N.pl3   
  18 N18            4.5391     4.1545    -2.5203 N.2     
  19 N19            5.1590     4.5606    -3.5730 N.2     
  20 C20            5.1751     4.5418    -1.4427 C.2     
  21 S21           10.7267     8.0526    -1.7554 S.3     
  22 N22           11.3954     8.4587    -0.2496 N.2     
  23 C23           10.6232     7.9603     0.6702 C.2     
  24 C24            9.5085     7.2599     0.2799 C.2     
  25 C25            9.3433     7.1706    -1.0845 C.2     
  26 C26           10.9444     8.1465     2.1307 C.3     
  27 F27            4.5538     5.4772     0.6484 F       
  28 F28            5.7736     3.5456     0.6270 F       
  29 H29           -0.9341    -0.5425     0.0081 H       
  30 H30            1.1789    -1.8009    -0.0177 H       
  31 H31            3.3255    -0.5970    -0.0317 H       
  32 H32            4.5116     1.6027    -0.0311 H       
  33 H33            2.2365     5.1984     0.0097 H       
  34 H34            0.1481     3.9476     0.0221 H       
  35 H35            7.2576     5.8968    -5.0036 H       
  36 H36            9.0469     7.0148    -3.7694 H       
  37 H37            8.8195     6.8165     0.9835 H       
  38 H38           10.4726     9.0599     2.4929 H       
  39 H39           10.5686     7.2943     2.6969 H       
  40 H40           12.0243     8.2200     2.2587 H       
@<TRIPOS>BOND
   1    1    2 ar
   2    1   10 ar
   3    2    3 ar
   4    2   29 1
   5    3    4 ar
   6    3   30 1
   7    4    5 ar
   8    4   31 1
   9    5    6 ar
  10    5   10 ar
  11    6    7 ar
  12    6   32 1
  13    7    8 ar
  14    7   11 1
  15    8    9 ar
  16    8   33 1
  17    9   10 ar
  18    9   34 1
  19   11   20 1
  20   11   27 1
  21   11   28 1
  22   12   13 1
  23   12   17 1
  24   12   19 2
  25   13   14 2
  26   13   35 1
  27   14   15 1
  28   14   36 1
  29   15   16 2
  30   15   25 1
  31   16   17 1
  32   17   20 1
  33   18   19 1
  34   18   20 2
  35   21   22 1
  36   21   25 1
  37   22   23 2
  38   23   24 1
  39   23   26 1
  40   24   25 2
  41   24   37 1
  42   26   38 1
  43   26   39 1
  44   26   40 1

#	End of record

