#	Name: ASD01230295
#	Creating user name:	WinNT
#	Creation time:	15. 06. 2019 19:12

#	Modifying user name:	WinNT
#	Modification time:	15. 06. 2019 19:12

#	Program:	/corina/corina34_cracker 3.40 0067  02.08.2006

@<TRIPOS>MOLECULE
ASD01230295
  44   47    0    0    0
SMALL
NO_CHARGES


@<TRIPOS>ATOM
   1 S1             0.0800     1.7746     1.3207 S.o2    
   2 N2            -0.1044     0.2587     0.6834 N.am    
   3 C3             0.6430    -0.1827    -0.2990 C.2     
   4 N4             1.6410     0.5187    -0.9135 N.pl3   
   5 C5             1.9777     1.9094    -0.5982 C.3     
   6 C6             1.8045     2.1790     0.8993 C.3     
   7 C7             0.3594    -1.5590    -0.7587 C.2     
   8 C8             1.1312    -2.1038    -1.7618 C.2     
   9 C9             2.1622    -1.3349    -2.3194 C.2     
  10 C10            2.3909    -0.0803    -1.8950 C.2     
  11 C11           -0.7394    -2.3419    -0.1488 C.ar    
  12 C12           -0.4541    -3.4973     0.5798 C.ar    
  13 C13           -1.4798    -4.2238     1.1463 C.ar    
  14 C14           -2.7956    -3.8074     0.9920 C.ar    
  15 C15           -3.0833    -2.6583     0.2672 C.ar    
  16 C16           -2.0622    -1.9231    -0.2965 C.ar    
  17 O17           -3.8040    -4.5261     1.5513 O.3     
  18 C18           -4.3856    -5.4995     0.8019 C.ar    
  19 C19           -3.8770    -5.8081    -0.4517 C.ar    
  20 C20           -4.4688    -6.7978    -1.2119 C.ar    
  21 C21           -5.5696    -7.4817    -0.7237 C.ar    
  22 C22           -6.0785    -7.1746     0.5266 C.ar    
  23 C23           -5.4849    -6.1893     1.2919 C.ar    
  24 C24           -3.9167    -7.1333    -2.5734 C.3     
  25 F25           -6.1478    -8.4492    -1.4686 F       
  26 O26           -0.8232     2.5854     0.5817 O.2     
  27 O27           -0.0676     1.5936     2.7224 O.2     
  28 H28            3.0127     2.1015    -0.8807 H       
  29 H29            1.3227     2.5743    -1.1612 H       
  30 H30            2.0026     3.2294     1.1130 H       
  31 H31            2.4845     1.5479     1.4716 H       
  32 H32            0.9449    -3.1080    -2.1129 H       
  33 H33            2.7800    -1.7557    -3.0989 H       
  34 H34            3.1975     0.4795    -2.3448 H       
  35 H35            0.5689    -3.8221     0.6995 H       
  36 H36           -1.2598    -5.1181     1.7103 H       
  37 H37           -4.1078    -2.3377     0.1486 H       
  38 H38           -2.2862    -1.0267    -0.8557 H       
  39 H39           -3.0189    -5.2745    -0.8329 H       
  40 H40           -6.9375    -7.7083     0.9056 H       
  41 H41           -5.8791    -5.9533     2.2692 H       
  42 H42           -3.1608    -7.9127    -2.4769 H       
  43 H43           -4.7233    -7.4868    -3.2155 H       
  44 H44           -3.4665    -6.2429    -3.0123 H       
@<TRIPOS>BOND
   1    1    2 am
   2    1    6 1
   3    1   26 2
   4    1   27 2
   5    2    3 2
   6    3    4 1
   7    3    7 1
   8    4    5 1
   9    4   10 1
  10    5    6 1
  11    5   28 1
  12    5   29 1
  13    6   30 1
  14    6   31 1
  15    7    8 2
  16    7   11 1
  17    8    9 1
  18    8   32 1
  19    9   10 2
  20    9   33 1
  21   10   34 1
  22   11   12 ar
  23   11   16 ar
  24   12   13 ar
  25   12   35 1
  26   13   14 ar
  27   13   36 1
  28   14   15 ar
  29   14   17 1
  30   15   16 ar
  31   15   37 1
  32   16   38 1
  33   17   18 1
  34   18   19 ar
  35   18   23 ar
  36   19   20 ar
  37   19   39 1
  38   20   21 ar
  39   20   24 1
  40   21   22 ar
  41   21   25 1
  42   22   23 ar
  43   22   40 1
  44   23   41 1
  45   24   42 1
  46   24   43 1
  47   24   44 1

#	End of record

