#	Name: ASD01151011
#	Creating user name:	WinNT
#	Creation time:	15. 06. 2019 19:05

#	Modifying user name:	WinNT
#	Modification time:	15. 06. 2019 19:05

#	Program:	/corina/corina34_cracker 3.40 0067  02.08.2006

@<TRIPOS>MOLECULE
ASD01151011
  38   38    0    0    0
SMALL
NO_CHARGES


@<TRIPOS>ATOM
   1 C1            -0.0168     1.3845     0.0097 C.2     
   2 C2             0.0021    -0.0041     0.0020 C.2     
   3 N3            -1.2696    -0.4207     0.0119 N.2     
   4 C4            -2.0752     0.6089     0.0251 C.2     
   5 N5            -1.3581     1.7463     0.0305 N.pl3   
   6 C6            -3.5802     0.5324     0.0386 C.3     
   7 C7            -4.0762     0.4990     1.4856 C.3     
   8 C8            -1.8911     3.1108     0.0449 C.3     
   9 C9            -2.0684     3.5738     1.4924 C.3     
  10 C10           -0.6994     3.6668     2.1694 C.3     
  11 C11           -2.7402     4.9483     1.5095 C.3     
  12 C12            1.0996     2.2517     0.0037 C.2     
  13 O13            0.9155     3.5890     0.0131 O.3     
  14 O14            2.2269     1.7926    -0.0100 O.2     
  15 C15            2.0883     4.4054     0.0062 C.3     
  16 C16            1.6828     5.8806     0.0187 C.3     
  17 N17            1.1306    -0.8103    -0.0135 N.pl3   
  18 H18           -3.9929     1.4054    -0.4669 H       
  19 H19           -3.9026    -0.3722    -0.4770 H       
  20 H20           -3.6635    -0.3740     1.9911 H       
  21 H21           -3.7538     1.4036     2.0011 H       
  22 H22           -5.1648     0.4437     1.4953 H       
  23 H23           -1.1972     3.7773    -0.4673 H       
  24 H24           -2.8552     3.1297    -0.4632 H       
  25 H25           -2.6913     2.8582     2.0291 H       
  26 H26           -0.8257     3.9966     3.2006 H       
  27 H27           -0.2208     2.6876     2.1572 H       
  28 H28           -0.0765     4.3824     1.6327 H       
  29 H29           -3.7154     4.8821     1.0272 H       
  30 H30           -2.8665     5.2782     2.5407 H       
  31 H31           -2.1173     5.6639     0.9729 H       
  32 H32            2.6887     4.1862     0.8891 H       
  33 H33            2.6713     4.1963    -0.8907 H       
  34 H34            2.5774     6.5033     0.0134 H       
  35 H35            1.0824     6.0998    -0.8642 H       
  36 H36            1.0998     6.0897     0.9156 H       
  37 H37            2.0136    -0.4087    -0.0201 H       
  38 H38            1.0370    -1.7757    -0.0177 H       
@<TRIPOS>BOND
   1    1    2 2
   2    1   12 1
   3    1    5 1
   4    2    3 1
   5    2   17 1
   6    3    4 2
   7    4    5 1
   8    4    6 1
   9    5    8 1
  10    6    7 1
  11    6   18 1
  12    6   19 1
  13    7   20 1
  14    7   21 1
  15    7   22 1
  16    8    9 1
  17    8   23 1
  18    8   24 1
  19    9   10 1
  20    9   11 1
  21    9   25 1
  22   10   26 1
  23   10   27 1
  24   10   28 1
  25   11   29 1
  26   11   30 1
  27   11   31 1
  28   12   13 1
  29   12   14 2
  30   13   15 1
  31   15   16 1
  32   15   32 1
  33   15   33 1
  34   16   34 1
  35   16   35 1
  36   16   36 1
  37   17   37 1
  38   17   38 1

#	End of record

