#	Name: ASD02038090
#	Creating user name:	WinNT
#	Creation time:	15. 06. 2019 20:16

#	Modifying user name:	WinNT
#	Modification time:	15. 06. 2019 20:16

#	Program:	/corina/corina34_cracker 3.40 0067  02.08.2006

@<TRIPOS>MOLECULE
ASD02038090
  51   53    0    0    0
SMALL
NO_CHARGES


@<TRIPOS>ATOM
   1 C1             0.0972     1.5930    -1.0547 C.ar    
   2 C2             0.1145     0.2179    -0.9019 C.ar    
   3 C3             1.2845     2.2911    -1.1979 C.ar    
   4 C4             2.4902     1.6149    -1.1889 C.ar    
   5 C5             2.5093     0.2349    -1.0356 C.ar    
   6 C6             1.3163    -0.4622    -0.8913 C.ar    
   7 N7             3.7265    -0.4514    -1.0261 N.pl3   
   8 C8             3.7453    -1.9073    -0.8643 C.3     
   9 C9             5.1920    -2.4046    -0.8886 C.3     
  10 N10            5.2108    -3.8605    -0.7269 N.am    
  11 C11            5.1562    -4.8434    -1.8198 C.3     
  12 C12            5.2064    -6.2019    -1.0945 C.3     
  13 O13            5.2833    -5.8459     0.3163 O.3     
  14 C14            5.2864    -4.5139     0.4406 C.2     
  15 C15            6.4478    -6.9901    -1.5171 C.3     
  16 O16            6.4125    -8.2892    -0.9229 O.3     
  17 C17            7.4507    -9.1230    -1.1994 C.ar    
  18 C18            7.4791   -10.3985    -0.6551 C.ar    
  19 C19            8.4776    -8.6995    -2.0300 C.ar    
  20 C20            9.5320    -9.5459    -2.3116 C.ar    
  21 C21            9.5641   -10.8209    -1.7626 C.ar    
  22 C22            8.5330   -11.2459    -0.9353 C.ar    
  23 N23           10.6321   -11.6791    -2.0475 N.am    
  24 O24            5.3440    -3.9484     1.5145 O.2     
  25 Cl25          -1.4159     2.4438    -1.0742 Cl      
  26 Cl26           1.2589     4.0163    -1.3894 Cl      
  27 S27           12.1044   -11.4354    -1.3295 S.o2    
  28 O28           12.9175   -12.4871    -1.8316 O.2     
  29 O29           12.4098   -10.0760    -1.6090 O.2     
  30 C30           11.7879   -11.6655     0.4417 C.3     
  31 H31           -0.8130    -0.3242    -0.7903 H       
  32 H32            3.4162     2.1592    -1.3013 H       
  33 H33            1.3288    -1.5355    -0.7716 H       
  34 H34            4.5590     0.0362    -1.1266 H       
  35 H35            3.2857    -2.1731     0.0876 H       
  36 H36            3.1881    -2.3706    -1.6786 H       
  37 H37            5.6516    -2.1388    -1.8406 H       
  38 H38            5.7492    -1.9413    -0.0743 H       
  39 H39            4.2263    -4.7423    -2.3795 H       
  40 H40            6.0159    -4.7299    -2.4802 H       
  41 H41            4.3017    -6.7758    -1.2950 H       
  42 H42            6.4642    -7.0874    -2.6027 H       
  43 H43            7.3428    -6.4633    -1.1860 H       
  44 H44            6.6771   -10.7289    -0.0117 H       
  45 H45            8.4524    -7.7078    -2.4569 H       
  46 H46           10.3312    -9.2162    -2.9589 H       
  47 H47            8.5572   -12.2375    -0.5079 H       
  48 H48           10.5101   -12.4168    -2.6654 H       
  49 H49           11.3289   -12.6405     0.6051 H       
  50 H50           12.7289   -11.6106     0.9891 H       
  51 H51           11.1157   -10.8836     0.7953 H       
@<TRIPOS>BOND
   1    1    2 ar
   2    1    3 ar
   3    1   25 1
   4    2    6 ar
   5    2   31 1
   6    3    4 ar
   7    3   26 1
   8    4    5 ar
   9    4   32 1
  10    5    6 ar
  11    5    7 1
  12    6   33 1
  13    7    8 1
  14    7   34 1
  15    8    9 1
  16    8   35 1
  17    8   36 1
  18    9   10 1
  19    9   37 1
  20    9   38 1
  21   10   11 1
  22   10   14 am
  23   11   12 1
  24   11   39 1
  25   11   40 1
  26   12   13 1
  27   12   15 1
  28   12   41 1
  29   13   14 1
  30   14   24 2
  31   15   16 1
  32   15   42 1
  33   15   43 1
  34   16   17 1
  35   17   18 ar
  36   17   19 ar
  37   18   22 ar
  38   18   44 1
  39   19   20 ar
  40   19   45 1
  41   20   21 ar
  42   20   46 1
  43   21   22 ar
  44   21   23 1
  45   22   47 1
  46   23   27 am
  47   23   48 1
  48   27   28 2
  49   27   29 2
  50   27   30 1
  51   30   49 1
  52   30   50 1
  53   30   51 1

#	End of record

