#	Name: ASD00841741
#	Creating user name:	WinNT
#	Creation time:	15. 06. 2019 18:42

#	Modifying user name:	WinNT
#	Modification time:	15. 06. 2019 18:42

#	Program:	/corina/corina34_cracker 3.40 0067  02.08.2006

@<TRIPOS>MOLECULE
ASD00841741
  97  102    0    0    0
SMALL
NO_CHARGES


@<TRIPOS>ATOM
   1 F1            -0.0823    -3.1451     4.7170 F       
   2 C2            -0.0142     1.3803     0.0276 C.ar    
   3 C3             0.0033    -0.0066     0.0121 C.ar    
   4 C4             1.2149    -0.6826    -0.0059 C.ar    
   5 C5             2.4001     0.0266    -0.0082 C.ar    
   6 C6             2.3800     1.4092     0.0077 C.ar    
   7 C7             1.1742     2.0851     0.0251 C.ar    
   8 C8             1.2376    -2.1893    -0.0222 C.3     
   9 C9             0.4952    -2.7176    -1.2310 C.2     
  10 N10            2.6177    -2.6806    -0.0126 N.am    
  11 C11            3.4633    -2.3341    -1.0034 C.2     
  12 N12            4.7589    -2.7002    -0.9424 N.am    
  13 O13            3.0572    -1.6912    -1.9521 O.2     
  14 C14            5.2906    -3.3760     0.2490 C.3     
  15 C15            6.5170    -2.6050     0.7471 C.3     
  16 C16            7.5240    -2.4623    -0.3965 C.3     
  17 C17            6.8886    -1.6712    -1.5422 C.3     
  18 C18            5.6651    -2.4366    -2.0685 C.3     
  19 N19            8.7158    -1.7522     0.0866 N.3     
  20 C20            9.7547    -1.7003    -0.9515 C.3     
  21 C21           10.9448    -0.8862    -0.4381 C.3     
  22 N22           11.4629    -1.5027     0.7911 N.3     
  23 C23           10.4240    -1.5546     1.8292 C.3     
  24 C24            9.2340    -2.3687     1.3158 C.3     
  25 C25           12.6547    -0.7926     1.2742 C.3     
  26 O26            0.7756    -2.5147    -2.3934 O.2     
  27 N27           -0.5321    -3.4537    -0.7752 N.am    
  28 C28            0.4671    -2.7434     1.1548 C.ar    
  29 C29           -0.5782    -3.4900     0.6206 C.ar    
  30 C30            0.6340    -2.6267     2.5171 C.ar    
  31 C31           -0.2447    -3.2575     3.3805 C.ar    
  32 C32           -1.3015    -4.0123     2.8614 C.ar    
  33 C33           -1.4646    -4.1267     1.4812 C.ar    
  34 C34           -0.9815    -5.8425    -2.0660 C.ar    
  35 C35            0.1982    -5.9975    -2.7790 C.ar    
  36 C36           -1.6536    -6.9538    -1.5947 C.ar    
  37 C37           -1.1511    -8.2195    -1.8329 C.ar    
  38 C38            0.0248    -8.3767    -2.5435 C.ar    
  39 C39            0.7002    -7.2689    -3.0171 C.ar    
  40 H40            0.4153    -9.3666    -2.7283 H       
  41 O41            0.8609    -4.9060    -3.2440 O.3     
  42 C42            2.0691    -5.1410    -3.9700 C.3     
  43 C43            2.6684    -3.8037    -4.4096 C.3     
  44 C44           13.0907    -1.3827     2.6168 C.3     
  45 C45           13.7875    -0.9470     0.2574 C.3     
  46 C46           -2.2155    -4.6685     3.7473 C.1     
  47 N47           -2.9406    -5.1890     4.4500 N.1     
  48 S48           -1.6185    -4.2293    -1.7553 S.o2    
  49 O49           -2.7993    -4.4057    -0.9847 O.2     
  50 O50           -1.5976    -3.5431    -2.9994 O.2     
  51 O51           -1.1642    -0.7021     0.0149 O.3     
  52 C52           -3.5736    -0.8889     0.0345 C.3     
  53 C53           -2.3731     0.0596     0.0342 C.3     
  54 H54           -0.9560     1.9089     0.0370 H       
  55 H55            3.3434    -0.4991    -0.0222 H       
  56 H56            3.3078     1.9619     0.0066 H       
  57 H57            1.1611     3.1650     0.0376 H       
  58 H58            2.9230    -3.2552     0.7067 H       
  59 H59            4.5292    -3.3947     1.0288 H       
  60 H60            5.5791    -4.3954    -0.0074 H       
  61 H61            6.2112    -1.6159     1.0880 H       
  62 H62            6.9780    -3.1482     1.5720 H       
  63 H63            7.8107    -3.4515    -0.7535 H       
  64 H64            6.5792    -0.6909    -1.1797 H       
  65 H65            7.6140    -1.5498    -2.3467 H       
  66 H66            5.9868    -3.3781    -2.5137 H       
  67 H67            5.1506    -1.8334    -2.8165 H       
  68 H68           10.0820    -2.7124    -1.1894 H       
  69 H69            9.3506    -1.2284    -1.8471 H       
  70 H70           11.7285    -0.8706    -1.1955 H       
  71 H71           10.6234     0.1335    -0.2260 H       
  72 H72           10.8281    -2.0265     2.7248 H       
  73 H73           10.0967    -0.5425     2.0671 H       
  74 H74            8.4502    -2.3843     2.0731 H       
  75 H75            9.5554    -3.3884     1.1037 H       
  76 H76           12.4215     0.2646     1.4005 H       
  77 H77            1.4520    -2.0424     2.9120 H       
  78 H78           -2.2807    -4.7097     1.0807 H       
  79 H79           -2.5721    -6.8337    -1.0395 H       
  80 H80           -1.6776    -9.0870    -1.4631 H       
  81 H81            1.6182    -7.3923    -3.5726 H       
  82 H82            2.7802    -5.6656    -3.3320 H       
  83 H83            1.8525    -5.7485    -4.8488 H       
  84 H84            1.9572    -3.2791    -5.0477 H       
  85 H85            2.8849    -3.1962    -3.5309 H       
  86 H86            3.5899    -3.9830    -4.9635 H       
  87 H87           13.3239    -2.4399     2.4905 H       
  88 H88           13.9750    -0.8558     2.9753 H       
  89 H89           12.2837    -1.2727     3.3412 H       
  90 H90           13.4769    -0.5266    -0.6992 H       
  91 H91           14.6718    -0.4202     0.6158 H       
  92 H92           14.0207    -2.0043     0.1310 H       
  93 H93           -4.4957    -0.3078     0.0492 H       
  94 H94           -3.5482    -1.5074    -0.8627 H       
  95 H95           -3.5322    -1.5271     0.9171 H       
  96 H96           -2.3985     0.6782     0.9313 H       
  97 H97           -2.4145     0.6979    -0.8485 H       
@<TRIPOS>BOND
   1    1   31 1
   2    2    3 ar
   3    2    7 ar
   4    2   54 1
   5    3    4 ar
   6    3   51 1
   7    4    5 ar
   8    4    8 1
   9    5    6 ar
  10    5   55 1
  11    6    7 ar
  12    6   56 1
  13    7   57 1
  14    8    9 1
  15    8   10 1
  16    8   28 1
  17    9   26 2
  18    9   27 am
  19   10   11 am
  20   10   58 1
  21   11   12 am
  22   11   13 2
  23   12   14 1
  24   12   18 1
  25   14   15 1
  26   14   59 1
  27   14   60 1
  28   15   16 1
  29   15   61 1
  30   15   62 1
  31   16   17 1
  32   16   19 1
  33   16   63 1
  34   17   18 1
  35   17   64 1
  36   17   65 1
  37   18   66 1
  38   18   67 1
  39   19   20 1
  40   19   24 1
  41   20   21 1
  42   20   68 1
  43   20   69 1
  44   21   22 1
  45   21   70 1
  46   21   71 1
  47   22   23 1
  48   22   25 1
  49   23   24 1
  50   23   72 1
  51   23   73 1
  52   24   74 1
  53   24   75 1
  54   25   44 1
  55   25   45 1
  56   25   76 1
  57   27   48 am
  58   27   29 1
  59   28   29 ar
  60   28   30 ar
  61   29   33 ar
  62   30   31 ar
  63   30   77 1
  64   31   32 ar
  65   32   33 ar
  66   32   46 1
  67   33   78 1
  68   34   35 ar
  69   34   36 ar
  70   34   48 1
  71   35   41 1
  72   35   39 ar
  73   36   37 ar
  74   36   79 1
  75   37   38 ar
  76   37   80 1
  77   38   39 ar
  78   38   40 1
  79   39   81 1
  80   41   42 1
  81   42   43 1
  82   42   82 1
  83   42   83 1
  84   43   84 1
  85   43   85 1
  86   43   86 1
  87   44   87 1
  88   44   88 1
  89   44   89 1
  90   45   90 1
  91   45   91 1
  92   45   92 1
  93   46   47 3
  94   48   49 2
  95   48   50 2
  96   51   53 1
  97   52   53 1
  98   52   93 1
  99   52   94 1
 100   52   95 1
 101   53   96 1
 102   53   97 1

#	End of record

