#	Name: ASD02198203
#	Creating user name:	WinNT
#	Creation time:	15. 06. 2019 20:19

#	Modifying user name:	WinNT
#	Modification time:	15. 06. 2019 20:19

#	Program:	/corina/corina34_cracker 3.40 0067  02.08.2006

@<TRIPOS>MOLECULE
ASD02198203
  36   37    0    0    0
SMALL
NO_CHARGES


@<TRIPOS>ATOM
   1 C1            -0.0166     1.3739     0.0096 C.2     
   2 C2             0.0021    -0.0041     0.0020 C.2     
   3 C3            -1.1876    -0.8011     0.0086 C.1     
   4 S4             1.5681     2.0027    -0.0022 S.3     
   5 C5             2.2761     0.3956    -0.0175 C.2     
   6 C6             1.2842    -0.5519    -0.0132 C.2     
   7 C7             3.6569     0.1205    -0.0318 C.2     
   8 O8             4.5478     1.1356    -0.0339 O.3     
   9 O9             4.0480    -1.0330    -0.0422 O.2     
  10 N10            1.5315    -1.9167    -0.0233 N.pl3   
  11 N11           -1.1603     2.1392     0.0194 N.pl3   
  12 N12           -2.1313    -1.4334     0.0139 N.1     
  13 C13           -1.0635     3.6009     0.0268 C.3     
  14 C14           -2.3389     4.2168    -0.5745 C.3     
  15 C15           -2.9728     5.0853     0.5317 C.3     
  16 C16           -1.7891     5.4293     1.4696 C.3     
  17 C17           -0.9668     4.1167     1.4775 C.3     
  18 C18            5.9326     0.7835    -0.0486 C.3     
  19 C19            6.7824     2.0557    -0.0488 C.3     
  20 H20            2.4445    -2.2441    -0.0341 H       
  21 H21            0.7914    -2.5438    -0.0196 H       
  22 H22           -2.0306     1.7107     0.0213 H       
  23 H23           -0.1905     3.9200    -0.5426 H       
  24 H24           -2.0849     4.8353    -1.4353 H       
  25 H25           -3.0300     3.4280    -0.8719 H       
  26 H26           -3.3989     5.9939     0.1062 H       
  27 H27           -3.7346     4.5214     1.0699 H       
  28 H28           -1.2004     6.2515     1.0630 H       
  29 H29           -2.1466     5.6671     2.4714 H       
  30 H30           -1.4046     3.3964     2.1685 H       
  31 H31            0.0712     4.3185     1.7422 H       
  32 H32            6.1662     0.1907     0.8358 H       
  33 H33            6.1499     0.2012    -0.9441 H       
  34 H34            6.5488     2.6485    -0.9332 H       
  35 H35            6.5651     2.6380     0.8467 H       
  36 H36            7.8387     1.7871    -0.0601 H       
@<TRIPOS>BOND
   1    1    2 2
   2    1    4 1
   3    1   11 1
   4    2    3 1
   5    2    6 1
   6    3   12 3
   7    4    5 1
   8    5    6 2
   9    5    7 1
  10    6   10 1
  11    7    8 1
  12    7    9 2
  13    8   18 1
  14   10   20 1
  15   10   21 1
  16   11   13 1
  17   11   22 1
  18   13   14 1
  19   13   17 1
  20   13   23 1
  21   14   15 1
  22   14   24 1
  23   14   25 1
  24   15   16 1
  25   15   26 1
  26   15   27 1
  27   16   17 1
  28   16   28 1
  29   16   29 1
  30   17   30 1
  31   17   31 1
  32   18   19 1
  33   18   32 1
  34   18   33 1
  35   19   34 1
  36   19   35 1
  37   19   36 1

#	End of record

