#	Name: ASD08710019
#	Creating user name:	WinNT
#	Creation time:	15. 06. 2019 21:19

#	Modifying user name:	WinNT
#	Modification time:	15. 06. 2019 21:19

#	Program:	/corina/corina34_cracker 3.40 0067  02.08.2006

@<TRIPOS>MOLECULE
ASD08710019
  46   48    0    0    0
SMALL
NO_CHARGES


@<TRIPOS>ATOM
   1 C1            -0.8696    -0.2456    -1.4193 C.ar    
   2 C2            -0.6168    -1.5670    -1.1016 C.ar    
   3 C3             0.1800     0.6392    -1.5817 C.ar    
   4 C4             1.4823     0.2027    -1.4264 C.ar    
   5 C5             1.7351    -1.1186    -1.1083 C.ar    
   6 C6             0.6856    -2.0035    -0.9463 C.ar    
   7 S7             1.0078    -3.6876    -0.5402 S.o2    
   8 O8            -0.1241    -4.4287    -0.9748 O.2     
   9 O9             2.3311    -3.9603    -0.9804 O.2     
  10 N10            1.0325    -3.7973     1.1119 N.am    
  11 C11           -0.1990    -4.0840     1.8610 C.3     
  12 C12            2.2874    -3.6159     1.8549 C.3     
  13 C13            2.5194    -4.8510     2.7341 C.3     
  14 N14            1.2869    -5.1321     3.4836 N.am    
  15 C15            0.0382    -5.3181     2.7402 C.3     
  16 C16           -0.0956     2.0797    -1.9285 C.3     
  17 F17           -0.2343     2.8242    -0.7522 F       
  18 F18            0.9678     2.5899    -2.6808 F       
  19 F19           -1.2763     2.1621    -2.6744 F       
  20 C20            1.3071    -5.2224     4.8282 C.2     
  21 O21            2.3666    -5.1988     5.4228 O.2     
  22 C22            0.0376    -5.3503     5.5813 C.ar    
  23 C23            0.0507    -5.8691     6.8737 C.ar    
  24 C24           -1.1450    -5.9823     7.5661 C.ar    
  25 C25           -2.3120    -5.5724     6.9411 C.ar    
  26 C26           -2.2507    -5.0654     5.6526 C.ar    
  27 N27           -1.1021    -4.9644     5.0206 N.ar    
  28 C28            2.8688    -6.0511     1.8517 C.3     
  29 H29           -1.8869     0.0944    -1.5451 H       
  30 H30           -1.4368    -2.2582    -0.9744 H       
  31 H31            2.3024     0.8938    -1.5539 H       
  32 H32            2.7527    -1.4598    -0.9876 H       
  33 H33           -0.4520    -3.2302     2.4896 H       
  34 H34           -1.0133    -4.2824     1.1641 H       
  35 H35            3.1148    -3.5052     1.1540 H       
  36 H36            2.2156    -2.7280     2.4831 H       
  37 H37            3.3348    -4.6563     3.4307 H       
  38 H38           -0.7908    -5.4282     3.4393 H       
  39 H39            0.1136    -6.2080     2.1152 H       
  40 H40            0.9792    -6.1792     7.3300 H       
  41 H41           -1.1665    -6.3811     8.5695 H       
  42 H42           -3.2601    -5.6477     7.4530 H       
  43 H43           -3.1583    -4.7451     5.1626 H       
  44 H44            3.7747    -5.8344     1.2856 H       
  45 H45            3.0332    -6.9275     2.4787 H       
  46 H46            2.0475    -6.2465     1.1623 H       
@<TRIPOS>BOND
   1    1    2 ar
   2    1    3 ar
   3    1   29 1
   4    2    6 ar
   5    2   30 1
   6    3    4 ar
   7    3   16 1
   8    4    5 ar
   9    4   31 1
  10    5    6 ar
  11    5   32 1
  12    6    7 1
  13    7    8 2
  14    7    9 2
  15    7   10 am
  16   10   11 1
  17   10   12 1
  18   11   15 1
  19   11   33 1
  20   11   34 1
  21   12   13 1
  22   12   35 1
  23   12   36 1
  24   13   14 1
  25   13   28 1
  26   13   37 1
  27   14   15 1
  28   14   20 am
  29   15   38 1
  30   15   39 1
  31   16   17 1
  32   16   18 1
  33   16   19 1
  34   20   21 2
  35   20   22 1
  36   22   23 ar
  37   22   27 ar
  38   23   24 ar
  39   23   40 1
  40   24   25 ar
  41   24   41 1
  42   25   26 ar
  43   25   42 1
  44   26   27 ar
  45   26   43 1
  46   28   44 1
  47   28   45 1
  48   28   46 1

#	End of record

