#	Name: ASD03640003
#	Creating user name:	WinNT
#	Creation time:	15. 06. 2019 20:43

#	Modifying user name:	WinNT
#	Modification time:	15. 06. 2019 20:43

#	Program:	/corina/corina34_cracker 3.40 0067  02.08.2006

@<TRIPOS>MOLECULE
ASD03640003
  14   15    0    0    0
SMALL
NO_CHARGES


@<TRIPOS>ATOM
   1 N1            -0.0163     1.3531     0.0095 N.am    
   2 C2             0.0021    -0.0041     0.0020 C.2     
   3 N3             1.1125    -0.6832    -0.0123 N.2     
   4 C4             2.3136    -0.0581    -0.0204 C.2     
   5 C5             2.3532     1.3390    -0.0133 C.2     
   6 C6             1.1401     2.0533     0.0022 C.2     
   7 O7             1.1326     3.2729     0.0085 O.2     
   8 N8             3.6865     1.6869    -0.0235 N.pl3   
   9 C9             4.3964     0.5396    -0.0360 C.2     
  10 N10            3.5868    -0.4852    -0.0342 N.2     
  11 H11           -0.8646     1.8236     0.0161 H       
  12 H12           -0.9363    -0.5386     0.0085 H       
  13 H13            4.0469     2.5875    -0.0219 H       
  14 H14            5.4745     0.4778    -0.0461 H       
@<TRIPOS>BOND
   1    1    2 1
   2    1    6 am
   3    1   11 1
   4    2    3 2
   5    2   12 1
   6    3    4 1
   7    4    5 2
   8    4   10 1
   9    5    6 1
  10    5    8 1
  11    6    7 2
  12    8    9 1
  13    8   13 1
  14    9   10 2
  15    9   14 1

#	End of record

