#	Name: ASD01890502
#	Creating user name:	WinNT
#	Creation time:	15. 06. 2019 19:51

#	Modifying user name:	WinNT
#	Modification time:	15. 06. 2019 19:51

#	Program:	/corina/corina34_cracker 3.40 0067  02.08.2006

@<TRIPOS>MOLECULE
ASD01890502
  48   51    0    0    0
SMALL
NO_CHARGES


@<TRIPOS>ATOM
   1 C1            -0.0278     1.4536    -0.0222 C.2     
   2 C2            -0.0036    -0.0079    -0.0415 C.2     
   3 C3             1.1747    -0.6626    -0.1146 C.2     
   4 C4             2.4500     0.1053    -0.3495 C.3     
   5 C5             3.0815     0.4689     0.9958 C.3     
   6 O6             1.0139     2.0783     0.0396 O.2     
   7 O7            -1.2054     2.1095    -0.0786 O.3     
   8 C8             0.5967    -2.9320    -0.9116 C.ar    
   9 C9             1.2139    -2.1252     0.0349 C.ar    
  10 C10            1.8778    -2.6982     1.1372 C.ar    
  11 C11            1.9278    -4.0446     1.2954 C.ar    
  12 C12            1.3120    -4.8886     0.3525 C.ar    
  13 C13            1.3524    -6.2852     0.4963 C.ar    
  14 C14            0.7481    -7.0774    -0.4318 C.ar    
  15 C15            0.0872    -6.5245    -1.5271 C.ar    
  16 C16            0.0271    -5.1760    -1.7007 C.ar    
  17 C17            0.6394    -4.3252    -0.7622 C.ar    
  18 C18            4.3145     2.5944     0.6679 C.ar    
  19 C19            4.3567     1.2368     0.7609 C.ar    
  20 C20            5.5613     0.5467     0.6425 C.ar    
  21 C21            6.7309     1.2100     0.4301 C.ar    
  22 C22            6.7269     2.6116     0.3281 C.ar    
  23 C23            7.9141     3.3296     0.1088 C.ar    
  24 C24            7.8719     4.6913     0.0146 C.ar    
  25 C25            6.6614     5.3817     0.1336 C.ar    
  26 C26            5.4950     4.7160     0.3467 C.ar    
  27 C27            5.5011     3.3137     0.4485 C.ar    
  28 O28            9.0212     5.3847    -0.1972 O.3     
  29 H29           -0.9284    -0.5640     0.0029 H       
  30 H30            3.1441    -0.5096    -0.9224 H       
  31 H31            2.2283     1.0166    -0.9050 H       
  32 H32            2.3874     1.0839     1.5686 H       
  33 H33            3.3032    -0.4423     1.5512 H       
  34 H34           -1.1205     3.0726    -0.0603 H       
  35 H35            0.0845    -2.4899    -1.7534 H       
  36 H36            2.3533    -2.0577     1.8653 H       
  37 H37            2.4409    -4.4693     2.1456 H       
  38 H38            1.8610    -6.7290     1.3394 H       
  39 H39            0.7819    -8.1508    -0.3176 H       
  40 H40           -0.3839    -7.1755    -2.2486 H       
  41 H41           -0.4885    -4.7611    -2.5542 H       
  42 H42            3.3728     3.1154     0.7577 H       
  43 H43            5.5672    -0.5304     0.7208 H       
  44 H44            7.6572     0.6619     0.3407 H       
  45 H45            8.8550     2.8077     0.0155 H       
  46 H46            6.6530     6.4588     0.0556 H       
  47 H47            4.5677     5.2621     0.4367 H       
  48 H48            9.2317     5.5213    -1.1311 H       
@<TRIPOS>BOND
   1    1    2 1
   2    1    6 2
   3    1    7 1
   4    2    3 2
   5    2   29 1
   6    3    4 1
   7    3    9 1
   8    4    5 1
   9    4   30 1
  10    4   31 1
  11    5   19 1
  12    5   32 1
  13    5   33 1
  14    7   34 1
  15    8    9 ar
  16    8   17 ar
  17    8   35 1
  18    9   10 ar
  19   10   11 ar
  20   10   36 1
  21   11   12 ar
  22   11   37 1
  23   12   13 ar
  24   12   17 ar
  25   13   14 ar
  26   13   38 1
  27   14   15 ar
  28   14   39 1
  29   15   16 ar
  30   15   40 1
  31   16   17 ar
  32   16   41 1
  33   18   19 ar
  34   18   27 ar
  35   18   42 1
  36   19   20 ar
  37   20   21 ar
  38   20   43 1
  39   21   22 ar
  40   21   44 1
  41   22   23 ar
  42   22   27 ar
  43   23   24 ar
  44   23   45 1
  45   24   25 ar
  46   24   28 1
  47   25   26 ar
  48   25   46 1
  49   26   27 ar
  50   26   47 1
  51   28   48 1

#	End of record

