#	Name: ASD02030491
#	Creating user name:	WinNT
#	Creation time:	15. 06. 2019 20:15

#	Modifying user name:	WinNT
#	Modification time:	15. 06. 2019 20:15

#	Program:	/corina/corina34_cracker 3.40 0067  02.08.2006

@<TRIPOS>MOLECULE
ASD02030491
  62   66    0    0    0
SMALL
NO_CHARGES


@<TRIPOS>ATOM
   1 N1            -0.0327     1.2408     0.3467 N.am    
   2 C2            -0.2599    -0.2110     0.3691 C.3     
   3 C3            -1.3012    -0.5275     1.4497 C.3     
   4 N4            -2.4531     0.3669     1.2681 N.am    
   5 C5            -2.2260     1.8187     1.2458 C.3     
   6 C6            -1.1854     2.1354     0.1708 C.3     
   7 C7             1.2097     1.7430     0.4906 C.2     
   8 C8             2.3401     0.8417     0.7994 C.2     
   9 N9             3.5697     1.2126     1.0847 N.2     
  10 N10            2.2913    -0.5023     0.8440 N.2     
  11 C11            3.4913    -0.9251     1.1504 C.2     
  12 N12            4.2802     0.1590     1.2979 N.pl3   
  13 O13            1.4007     2.9371     0.3663 O.2     
  14 C14           -3.6955    -0.1353     1.1243 C.2     
  15 C15           -3.8954    -1.5876     1.0429 C.2     
  16 O16           -4.6515     0.6148     1.0619 O.2     
  17 C17           -0.7332     3.5907     0.3067 C.3     
  18 C18           -1.7938     1.9104    -1.2149 C.3     
  19 C19            5.6423     0.1423     1.6269 C.ar    
  20 C20            6.3429     1.3344     1.7489 C.ar    
  21 C21            7.6865     1.3145     2.0741 C.ar    
  22 C22            8.3322     0.1076     2.2773 C.ar    
  23 C23            7.6360    -1.0810     2.1562 C.ar    
  24 C24            6.2924    -1.0668     1.8372 C.ar    
  25 Cl25           8.5641     2.8045     2.2271 Cl      
  26 C26           -5.0761    -2.2002     0.7651 C.2     
  27 C27           -4.8033    -3.6359     0.7885 C.ar    
  28 C28           -3.4333    -3.7594     1.0892 C.ar    
  29 O29           -2.9327    -2.5160     1.2269 O.3     
  30 C30           -5.5839    -4.7779     0.5854 C.ar    
  31 C31           -5.0137    -6.0142     0.6795 C.ar    
  32 C32           -3.6583    -6.1447     0.9772 C.ar    
  33 C33           -2.8708    -5.0257     1.1812 C.ar    
  34 C34           -6.3994    -1.5339     0.4892 C.3     
  35 O35           -3.1057    -7.3820     1.0684 O.3     
  36 C36           -3.9715    -8.4972     0.8475 C.3     
  37 H37           -0.6299    -0.5384    -0.6025 H       
  38 H38            0.6739    -0.7239     0.5995 H       
  39 H39           -1.6243    -1.5641     1.3540 H       
  40 H40           -0.8654    -0.3672     2.4358 H       
  41 H41           -3.1598     2.3316     1.0154 H       
  42 H42           -1.8560     2.1461     2.2174 H       
  43 H43            3.7943    -1.9552     1.2670 H       
  44 H44           -0.1935     3.7173     1.2452 H       
  45 H45           -0.0787     3.8472    -0.5263 H       
  46 H46           -1.6054     4.2445     0.2981 H       
  47 H47           -2.6571     2.5634    -1.3431 H       
  48 H48           -1.0504     2.1367    -1.9793 H       
  49 H49           -2.1073     0.8708    -1.3096 H       
  50 H50            5.8390     2.2763     1.5897 H       
  51 H51            9.3820     0.0940     2.5306 H       
  52 H52            8.1427    -2.0214     2.3150 H       
  53 H53            5.7495    -1.9957     1.7432 H       
  54 H54           -6.6347    -4.6819     0.3551 H       
  55 H55           -5.6164    -6.8966     0.5226 H       
  56 H56           -1.8215    -5.1366     1.4115 H       
  57 H57           -6.4963    -1.3474    -0.5803 H       
  58 H58           -7.2095    -2.1842     0.8195 H       
  59 H59           -6.4496    -0.5883     1.0289 H       
  60 H60           -4.7779    -8.4819     1.5807 H       
  61 H61           -4.3920    -8.4375    -0.1564 H       
  62 H62           -3.4051    -9.4228     0.9496 H       
@<TRIPOS>BOND
   1    1    2 1
   2    1    7 am
   3    1    6 1
   4    2    3 1
   5    2   37 1
   6    2   38 1
   7    3    4 1
   8    3   39 1
   9    3   40 1
  10    4    5 1
  11    4   14 am
  12    5    6 1
  13    5   41 1
  14    5   42 1
  15    6   17 1
  16    6   18 1
  17    7    8 1
  18    7   13 2
  19    8    9 2
  20    8   10 1
  21    9   12 1
  22   10   11 2
  23   11   12 1
  24   11   43 1
  25   12   19 1
  26   14   15 1
  27   14   16 2
  28   15   26 2
  29   15   29 1
  30   17   44 1
  31   17   45 1
  32   17   46 1
  33   18   47 1
  34   18   48 1
  35   18   49 1
  36   19   20 ar
  37   19   24 ar
  38   20   21 ar
  39   20   50 1
  40   21   22 ar
  41   21   25 1
  42   22   23 ar
  43   22   51 1
  44   23   24 ar
  45   23   52 1
  46   24   53 1
  47   26   27 1
  48   26   34 1
  49   27   28 ar
  50   27   30 ar
  51   28   29 1
  52   28   33 ar
  53   30   31 ar
  54   30   54 1
  55   31   32 ar
  56   31   55 1
  57   32   33 ar
  58   32   35 1
  59   33   56 1
  60   34   57 1
  61   34   58 1
  62   34   59 1
  63   35   36 1
  64   36   60 1
  65   36   61 1
  66   36   62 1

#	End of record

