#	Name: ASD02610023
#	Creating user name:	WinNT
#	Creation time:	15. 06. 2019 20:25

#	Modifying user name:	WinNT
#	Modification time:	15. 06. 2019 20:25

#	Program:	/corina/corina34_cracker 3.40 0067  02.08.2006

@<TRIPOS>MOLECULE
ASD02610023
 114  117    0    0    0
SMALL
NO_CHARGES


@<TRIPOS>ATOM
   1 C1             1.4410     0.7769    -0.7586 C.3     
   2 C2             1.8835    -0.6801    -1.0371 C.3     
   3 C3             3.2372    -0.5494    -1.6952 C.2     
   4 C4             3.7430     0.6477    -1.5084 C.2     
   5 C5             2.8053     1.4889    -0.6894 C.3     
   6 C6             5.0548     1.1174    -2.0796 C.3     
   7 C7             5.6845     2.1829    -1.2080 C.3     
   8 C8             5.1234     3.5619    -1.3731 C.3     
   9 C9             3.8739     3.7853    -0.5608 C.3     
  10 C10            2.7279     2.9254    -1.0686 C.3     
  11 O11            0.9455    -1.3313    -1.9340 O.3     
  12 C12            3.9186    -1.6505    -2.4661 C.3     
  13 O13            0.7341     0.8765     0.5057 O.3     
  14 H14            3.1443     1.4450     0.3456 H       
  15 O15            1.4841     3.4688    -0.5530 O.3     
  16 C16            2.6930     3.0203    -2.5953 C.3     
  17 O17            4.8199     3.7738    -2.7533 O.3     
  18 O18            6.0248     0.0560    -2.1152 O.3     
  19 C19            7.3192     0.6872    -2.1955 C.3     
  20 C20            7.1795     2.0985    -1.5817 C.3     
  21 O21            5.5354     1.7994     0.1604 O.3     
  22 C22           -0.6009     0.7413     0.4698 C.2     
  23 C23           -1.4021     0.8329     1.7429 C.3     
  24 C24           -2.8870     0.6455     1.4256 C.3     
  25 C25           -3.7004     0.7385     2.7181 C.3     
  26 C26           -5.1854     0.5511     2.4007 C.3     
  27 C27           -5.9988     0.6441     3.6933 C.3     
  28 O28           -1.1602     0.5462    -0.5833 O.2     
  29 O29            7.5151     3.1008    -2.5433 O.3     
  30 C30           -7.4838     0.4567     3.3759 C.3     
  31 C31           -8.2972     0.5497     4.6685 C.3     
  32 C32            8.0549     2.2323    -0.3341 C.3     
  33 C33            1.1802     4.7297    -0.8988 C.2     
  34 C34           -0.0556     5.3871    -0.3405 C.3     
  35 O35            1.8974     5.3375    -1.6578 O.2     
  36 H36            4.8998     1.5082    -3.0852 H       
  37 C37            7.7550     0.7965    -3.6581 C.3     
  38 O38            8.2771    -0.0722    -1.4554 O.3     
  39 C39            0.7971    -2.6588    -1.8015 C.2     
  40 C40           -0.1589    -3.4032    -2.6975 C.3     
  41 C41           -0.1383    -4.8910    -2.3412 C.3     
  42 C42           -1.1089    -5.6468    -3.2509 C.3     
  43 C43           -1.0883    -7.1346    -2.8946 C.3     
  44 C44           -2.0589    -7.8904    -3.8043 C.3     
  45 C45           -2.0386    -9.3558    -3.4534 C.2     
  46 N46           -2.8205   -10.2214    -4.1286 N.am    
  47 O47            1.4300    -3.2568    -0.9639 O.2     
  48 O48           -1.3187    -9.7563    -2.5633 O.2     
  49 C49           -2.8872   -11.5611    -3.7305 C.ar    
  50 C50           -2.7499   -11.8954    -2.3893 C.ar    
  51 C51           -2.8161   -13.2182    -1.9950 C.ar    
  52 C52           -3.0188   -14.2121    -2.9325 C.ar    
  53 C53           -3.1569   -13.8843    -4.2761 C.ar    
  54 C54           -3.0962   -12.5565    -4.6744 C.ar    
  55 C55           -3.0898   -15.6534    -2.4982 C.3     
  56 N56           -3.3615   -14.8899    -5.2236 N.pl3   
  57 H57            0.8355     1.1667    -1.5769 H       
  58 H58            1.9670    -1.2368    -0.1037 H       
  59 H59            5.8769     4.2871    -1.0657 H       
  60 H60            4.0749     3.5341     0.4806 H       
  61 H61            3.5886     4.8353    -0.6254 H       
  62 H62            3.2850    -2.5374    -2.4697 H       
  63 H63            4.0912    -1.3231    -3.4913 H       
  64 H64            4.8725    -1.8874    -1.9949 H       
  65 H65            1.7424     2.6329    -2.9618 H       
  66 H66            2.8014     4.0621    -2.8971 H       
  67 H67            3.5104     2.4336    -3.0146 H       
  68 H68            4.4507     4.6467    -2.9453 H       
  69 H69            5.8806     0.9188     0.3619 H       
  70 H70           -1.0771     0.0546     2.4334 H       
  71 H71           -1.2486     1.8108     2.1992 H       
  72 H72           -3.2120     1.4237     0.7350 H       
  73 H73           -3.0405    -0.3324     0.9692 H       
  74 H74           -3.3755    -0.0398     3.4086 H       
  75 H75           -3.5470     1.7164     3.1744 H       
  76 H76           -5.5104     1.3293     1.7102 H       
  77 H77           -5.3389    -0.4268     1.9444 H       
  78 H78           -5.6738    -0.1341     4.3838 H       
  79 H79           -5.8453     1.6220     4.1496 H       
  80 H80            8.4437     3.0920    -2.8129 H       
  81 H81           -7.8087     1.2350     2.6854 H       
  82 H82           -7.6372    -0.5212     2.9196 H       
  83 H83           -7.9722    -0.2285     5.3590 H       
  84 H84           -8.1437     1.5276     5.1248 H       
  85 H85           -9.3551     0.4162     4.4424 H       
  86 H86            7.8193     1.4282     0.3631 H       
  87 H87            9.1052     2.1702    -0.6188 H       
  88 H88            7.8639     3.1939     0.1424 H       
  89 H89           -0.5714     4.6898     0.3197 H       
  90 H90            0.2286     6.2768     0.2214 H       
  91 H91           -0.7177     5.6702    -1.1587 H       
  92 H92            7.0157     1.3718    -4.2154 H       
  93 H93            8.7216     1.2973    -3.7127 H       
  94 H94            7.8381    -0.2017    -4.0880 H       
  95 H95            8.4028    -0.9732    -1.7832 H       
  96 H96           -1.1664    -3.0106    -2.5599 H       
  97 H97            0.1423    -3.2744    -3.7371 H       
  98 H98            0.8692    -5.2836    -2.4789 H       
  99 H99           -0.4396    -5.0199    -1.3017 H       
 100 H100          -2.1164    -5.2542    -3.1133 H       
 101 H101          -0.8077    -5.5179    -4.2905 H       
 102 H102          -0.0808    -7.5272    -3.0323 H       
 103 H103          -1.3896    -7.2634    -1.8550 H       
 104 H104          -3.0664    -7.4977    -3.6667 H       
 105 H105          -1.7577    -7.7615    -4.8439 H       
 106 H106          -3.3370    -9.9156    -4.8906 H       
 107 H107          -2.5909   -11.1207    -1.6538 H       
 108 H108          -2.7087   -13.4754    -0.9516 H       
 109 H109          -3.2032   -12.2990    -5.7178 H       
 110 H110          -4.1230   -15.9128    -2.2672 H       
 111 H111          -2.7255   -16.2935    -3.3018 H       
 112 H112          -2.4723   -15.7965    -1.6114 H       
 113 H113          -3.4073   -15.8176    -4.9442 H       
 114 H114          -3.4578   -14.6604    -6.1612 H       
@<TRIPOS>BOND
   1    1    2 1
   2    1    5 1
   3    1   13 1
   4    1   57 1
   5    2    3 1
   6    2   11 1
   7    2   58 1
   8    3    4 2
   9    3   12 1
  10    4    5 1
  11    4    6 1
  12    5   10 1
  13    5   14 1
  14    6    7 1
  15    6   18 1
  16    6   36 1
  17    7   20 1
  18    7   21 1
  19    7    8 1
  20    8    9 1
  21    8   17 1
  22    8   59 1
  23    9   10 1
  24    9   60 1
  25    9   61 1
  26   10   15 1
  27   10   16 1
  28   11   39 1
  29   12   62 1
  30   12   63 1
  31   12   64 1
  32   13   22 1
  33   15   33 1
  34   16   65 1
  35   16   66 1
  36   16   67 1
  37   17   68 1
  38   18   19 1
  39   19   20 1
  40   19   37 1
  41   19   38 1
  42   20   29 1
  43   20   32 1
  44   21   69 1
  45   22   23 1
  46   22   28 2
  47   23   24 1
  48   23   70 1
  49   23   71 1
  50   24   25 1
  51   24   72 1
  52   24   73 1
  53   25   26 1
  54   25   74 1
  55   25   75 1
  56   26   27 1
  57   26   76 1
  58   26   77 1
  59   27   30 1
  60   27   78 1
  61   27   79 1
  62   29   80 1
  63   30   31 1
  64   30   81 1
  65   30   82 1
  66   31   83 1
  67   31   84 1
  68   31   85 1
  69   32   86 1
  70   32   87 1
  71   32   88 1
  72   33   34 1
  73   33   35 2
  74   34   89 1
  75   34   90 1
  76   34   91 1
  77   37   92 1
  78   37   93 1
  79   37   94 1
  80   38   95 1
  81   39   40 1
  82   39   47 2
  83   40   41 1
  84   40   96 1
  85   40   97 1
  86   41   42 1
  87   41   98 1
  88   41   99 1
  89   42   43 1
  90   42  100 1
  91   42  101 1
  92   43   44 1
  93   43  102 1
  94   43  103 1
  95   44   45 1
  96   44  104 1
  97   44  105 1
  98   45   46 am
  99   45   48 2
 100   46   49 1
 101   46  106 1
 102   49   50 ar
 103   49   54 ar
 104   50   51 ar
 105   50  107 1
 106   51   52 ar
 107   51  108 1
 108   52   53 ar
 109   52   55 1
 110   53   54 ar
 111   53   56 1
 112   54  109 1
 113   55  110 1
 114   55  111 1
 115   55  112 1
 116   56  113 1
 117   56  114 1

#	End of record

