#	Name: ASD04590812
#	Creating user name:	WinNT
#	Creation time:	15. 06. 2019 20:51

#	Modifying user name:	WinNT
#	Modification time:	15. 06. 2019 20:51

#	Program:	/corina/corina34_cracker 3.40 0067  02.08.2006

@<TRIPOS>MOLECULE
ASD04590812
  56   61    0    0    0
SMALL
NO_CHARGES


@<TRIPOS>ATOM
   1 N1            -0.0171     1.3231    -0.0122 N.ar    
   2 C2             0.0017    -0.0035    -0.0053 C.ar    
   3 N3             1.1297    -0.6949    -0.0118 N.ar    
   4 C4             2.3049    -0.0729    -0.0263 C.ar    
   5 C5             2.3188     1.3365    -0.0345 C.ar    
   6 C6             1.1072     2.0202    -0.0266 C.ar    
   7 N7             3.6030    -0.5196    -0.0366 N.pl3   
   8 C8             4.4822     0.5494    -0.0514 C.ar    
   9 C9             3.7312     1.7384    -0.0507 C.ar    
  10 C10            5.8679     0.6416    -0.0660 C.ar    
  11 N11            6.4612     1.8179    -0.0785 N.ar    
  12 C12            5.7850     2.9531    -0.0783 C.ar    
  13 C13            4.4064     2.9583    -0.0647 C.ar    
  14 N14           -1.2023    -0.6889     0.0098 N.pl3   
  15 C15           -2.3990     0.0099     0.1300 C.ar    
  16 N16           -2.3737     1.3188     0.3307 N.ar    
  17 C17           -3.4803     2.0239     0.4505 C.ar    
  18 C18           -4.7280     1.4077     0.3688 C.ar    
  19 C19           -4.7907     0.0237     0.1569 C.ar    
  20 C20           -3.6070    -0.6752     0.0319 C.ar    
  21 C21           -5.9665     2.2022     0.5041 C.2     
  22 C22           -6.2545     2.8704     1.8196 C.3     
  23 C23           -7.3276     3.9451     1.6285 C.3     
  24 N24           -8.4510     3.3569     0.8806 N.3     
  25 C25           -8.0510     3.0825    -0.5053 C.3     
  26 C26           -6.7695     2.3003    -0.5329 C.2     
  27 C27            4.0016    -1.9293    -0.0321 C.3     
  28 C28            3.4615    -2.6257     1.2293 C.3     
  29 C29            2.5281    -3.7541     0.7442 C.3     
  30 C30            3.0197    -4.0627    -0.6919 C.3     
  31 C31            3.3776    -2.6588    -1.2396 C.3     
  32 H32            1.0848     3.0999    -0.0322 H       
  33 H33            6.4644    -0.2587    -0.0668 H       
  34 H34            6.3203     3.8910    -0.0888 H       
  35 H35            3.8597     3.8897    -0.0649 H       
  36 H36           -1.2107    -1.6561    -0.0634 H       
  37 H37           -3.4200     3.0898     0.6139 H       
  38 H38           -5.7421    -0.4830     0.0890 H       
  39 H39           -3.6177    -1.7426    -0.1324 H       
  40 H40           -6.6087     2.1272     2.5340 H       
  41 H41           -5.3428     3.3316     2.1993 H       
  42 H42           -7.6767     4.2910     2.6015 H       
  43 H43           -6.9120     4.7818     1.0669 H       
  44 H44           -8.7873     2.5197     1.3324 H       
  45 H45           -8.8361     2.5117    -1.0013 H       
  46 H46           -7.9057     4.0254    -1.0325 H       
  47 H47           -6.4981     1.7885    -1.4444 H       
  48 H48            5.0881    -2.0100    -0.0669 H       
  49 H49            4.2858    -3.0451     1.8062 H       
  50 H50            2.9028    -1.9149     1.8381 H       
  51 H51            2.6307    -4.6337     1.3797 H       
  52 H52            1.4931    -3.4126     0.7280 H       
  53 H53            3.9004    -4.7045    -0.6691 H       
  54 H54            2.2245    -4.5169    -1.2831 H       
  55 H55            2.4798    -2.1404    -1.5762 H       
  56 H56            4.1001    -2.7390    -2.0519 H       
@<TRIPOS>BOND
   1    1    2 ar
   2    1    6 ar
   3    2    3 ar
   4    2   14 1
   5    3    4 ar
   6    4    5 ar
   7    4    7 1
   8    5    6 ar
   9    5    9 1
  10    6   32 1
  11    7    8 1
  12    7   27 1
  13    8    9 ar
  14    8   10 ar
  15    9   13 ar
  16   10   11 ar
  17   10   33 1
  18   11   12 ar
  19   12   13 ar
  20   12   34 1
  21   13   35 1
  22   14   15 1
  23   14   36 1
  24   15   16 ar
  25   15   20 ar
  26   16   17 ar
  27   17   18 ar
  28   17   37 1
  29   18   19 ar
  30   18   21 1
  31   19   20 ar
  32   19   38 1
  33   20   39 1
  34   21   22 1
  35   21   26 2
  36   22   23 1
  37   22   40 1
  38   22   41 1
  39   23   24 1
  40   23   42 1
  41   23   43 1
  42   24   25 1
  43   24   44 1
  44   25   26 1
  45   25   45 1
  46   25   46 1
  47   26   47 1
  48   27   28 1
  49   27   31 1
  50   27   48 1
  51   28   29 1
  52   28   49 1
  53   28   50 1
  54   29   30 1
  55   29   51 1
  56   29   52 1
  57   30   31 1
  58   30   53 1
  59   30   54 1
  60   31   55 1
  61   31   56 1

#	End of record

