#	Name: ASD04590009
#	Creating user name:	WinNT
#	Creation time:	15. 06. 2019 20:50

#	Modifying user name:	WinNT
#	Modification time:	15. 06. 2019 20:50

#	Program:	/corina/corina34_cracker 3.40 0067  02.08.2006

@<TRIPOS>MOLECULE
ASD04590009
  57   60    0    0    0
SMALL
NO_CHARGES


@<TRIPOS>ATOM
   1 C1             1.2163    -0.6238    -1.2945 C.ar    
   2 C2             0.1174    -0.3420    -0.4685 C.ar    
   3 C3             0.1988     0.6765     0.4323 C.ar    
   4 C4             1.3558     1.4442     0.5476 C.ar    
   5 C5             2.4420     1.1993    -0.2376 C.ar    
   6 C6             2.3945     0.1589    -1.1760 C.ar    
   7 C7             3.4818    -0.1439    -2.0160 C.ar    
   8 C8             3.3566    -1.1702    -2.9021 C.ar    
   9 N9             2.2437    -1.8856    -2.9926 N.ar    
  10 C10            1.1934    -1.6644    -2.2374 C.ar    
  11 S11            3.8948     2.1830    -0.0753 S.o2    
  12 N12            4.1034     2.9892    -1.5067 N.am    
  13 O13            3.6030     3.1714     0.9031 O.2     
  14 O14            4.9831     1.2761     0.0367 O.2     
  15 C15            3.1042     3.9643    -1.9506 C.3     
  16 C16            3.6945     4.8269    -3.0678 C.3     
  17 N17            2.6925     5.8046    -3.5129 N.3     
  18 C18            3.2254     6.6525    -4.5877 C.3     
  19 C19            2.1718     7.6405    -5.0173 C.2     
  20 C20            4.9097     9.1087    -5.3270 C.ar    
  21 C21            3.7770     9.4315    -4.5814 C.ar    
  22 C22            2.4414     8.9513    -5.0111 C.2     
  23 C23            6.1501     9.5580    -4.9221 C.ar    
  24 C24            6.2707    10.3273    -3.7788 C.ar    
  25 C25            5.1502    10.6508    -3.0350 C.ar    
  26 C26            3.9046    10.2071    -3.4302 C.ar    
  27 C27            1.4045     9.9236    -5.4338 C.ar    
  28 C28            0.2350    10.0672    -4.6891 C.ar    
  29 C29            1.5983    10.7014    -6.5741 C.ar    
  30 C30            0.6302    11.6050    -6.9625 C.ar    
  31 C31           -0.5308    11.7395    -6.2225 C.ar    
  32 C32           -0.7262    10.9740    -5.0870 C.ar    
  33 H33           -0.7863    -0.9281    -0.5466 H       
  34 H34           -0.6476     0.8928     1.0673 H       
  35 H35            1.3921     2.2459     1.2704 H       
  36 H36            4.3972     0.4264    -1.9594 H       
  37 H37            4.1873    -1.4082    -3.5500 H       
  38 H38            0.3091    -2.2745    -2.3484 H       
  39 H39            4.8872     2.8158    -2.0512 H       
  40 H40            2.2246     3.4392    -2.3232 H       
  41 H41            2.8197     4.6002    -1.1123 H       
  42 H42            4.5740     5.3520    -2.6952 H       
  43 H43            3.9790     4.1910    -3.9061 H       
  44 H44            1.8425     5.3448    -3.8029 H       
  45 H45            4.1017     7.1902    -4.2256 H       
  46 H46            3.5067     6.0292    -5.4365 H       
  47 H47            1.1990     7.2908    -5.3302 H       
  48 H48            4.8172     8.5044    -6.2173 H       
  49 H49            7.0284     9.3082    -5.4988 H       
  50 H50            7.2435    10.6768    -3.4657 H       
  51 H51            5.2503    11.2515    -2.1430 H       
  52 H52            3.0304    10.4605    -2.8489 H       
  53 H53            0.0813     9.4698    -3.8026 H       
  54 H54            2.5045    10.5975    -7.1524 H       
  55 H55            0.7794    12.2084    -7.8457 H       
  56 H56           -1.2856    12.4481    -6.5300 H       
  57 H57           -1.6347    11.0829    -4.5133 H       
@<TRIPOS>BOND
   1    1    2 ar
   2    1    6 ar
   3    1   10 ar
   4    2    3 ar
   5    2   33 1
   6    3    4 ar
   7    3   34 1
   8    4    5 ar
   9    4   35 1
  10    5    6 ar
  11    5   11 1
  12    6    7 ar
  13    7    8 ar
  14    7   36 1
  15    8    9 ar
  16    8   37 1
  17    9   10 ar
  18   10   38 1
  19   11   12 am
  20   11   13 2
  21   11   14 2
  22   12   15 1
  23   12   39 1
  24   15   16 1
  25   15   40 1
  26   15   41 1
  27   16   17 1
  28   16   42 1
  29   16   43 1
  30   17   18 1
  31   17   44 1
  32   18   19 1
  33   18   45 1
  34   18   46 1
  35   19   22 2
  36   19   47 1
  37   20   21 ar
  38   20   23 ar
  39   20   48 1
  40   21   22 1
  41   21   26 ar
  42   22   27 1
  43   23   24 ar
  44   23   49 1
  45   24   25 ar
  46   24   50 1
  47   25   26 ar
  48   25   51 1
  49   26   52 1
  50   27   28 ar
  51   27   29 ar
  52   28   32 ar
  53   28   53 1
  54   29   30 ar
  55   29   54 1
  56   30   31 ar
  57   30   55 1
  58   31   32 ar
  59   31   56 1
  60   32   57 1

#	End of record

