#	Name: ASD03090228
#	Creating user name:	WinNT
#	Creation time:	15. 06. 2019 20:28

#	Modifying user name:	WinNT
#	Modification time:	15. 06. 2019 20:28

#	Program:	/corina/corina34_cracker 3.40 0067  02.08.2006

@<TRIPOS>MOLECULE
ASD03090228
  49   52    0    0    0
SMALL
NO_CHARGES


@<TRIPOS>ATOM
   1 C1             0.1111     1.1540     0.8105 C.ar    
   2 C2            -1.0072     1.8032     1.3387 C.ar    
   3 C3            -2.2529     1.2151     1.2216 C.ar    
   4 C4            -2.3450    -0.0229     0.5698 C.ar    
   5 C5            -1.1838    -0.6089     0.0683 C.ar    
   6 N6            -0.0151    -0.0170     0.2056 N.ar    
   7 C7            -3.6518    -0.6959     0.4173 C.2     
   8 N8            -5.7535    -3.5085     0.2826 N.pl3   
   9 C9            -7.1088    -3.6498    -0.0275 C.ar    
  10 C10           -7.7166    -2.7663    -0.9102 C.ar    
  11 C11           -9.0564    -2.9088    -1.2144 C.ar    
  12 C12           -9.7923    -3.9294    -0.6413 C.ar    
  13 C13           -9.1903    -4.8106     0.2385 C.ar    
  14 C14           -7.8499    -4.6777     0.5422 C.ar    
  15 N15           -3.8677    -1.9940     0.4682 N.2     
  16 C16           -5.1682    -2.2432     0.2896 C.2     
  17 N17           -5.8077    -1.1101     0.1213 N.2     
  18 N18           -4.8534    -0.0831     0.2044 N.am    
  19 C19           -5.0773     1.2409     0.0888 C.2     
  20 O20            1.2097     1.9254     1.0506 O.3     
  21 C21            0.7022     3.2359     1.3622 C.3     
  22 O22           -0.6062     2.9772     1.9051 O.3     
  23 N23           -6.3388     1.7048    -0.0113 N.am    
  24 O24           -4.1419     2.0164     0.0748 O.2     
  25 C25           -6.5822     3.1440    -0.1370 C.3     
  26 C26           -8.0875     3.4002    -0.2330 C.3     
  27 O27           -8.7152     3.0161     0.9920 O.3     
  28 C28          -10.1300     3.2158     1.0077 C.3     
  29 C29           -9.9967    -5.9209     0.8614 C.3     
  30 F30          -11.3158    -5.8547     0.4001 F       
  31 F31           -9.4408    -7.1554     0.5089 F       
  32 F32           -9.9821    -5.7834     2.2536 F       
  33 H33           -3.1326     1.6968     1.6222 H       
  34 H34           -1.2426    -1.5623    -0.4358 H       
  35 H35           -5.2200    -4.2909     0.4930 H       
  36 H36           -7.1424    -1.9687    -1.3579 H       
  37 H37           -9.5297    -2.2219    -1.9005 H       
  38 H38          -10.8397    -4.0385    -0.8809 H       
  39 H39           -7.3804    -5.3662     1.2293 H       
  40 H40            1.3344     3.7250     2.1033 H       
  41 H41            0.6291     3.8427     0.4596 H       
  42 H42           -7.0855     1.0858    -0.0002 H       
  43 H43           -6.1811     3.6579     0.7366 H       
  44 H44           -6.0918     3.5183    -1.0356 H       
  45 H45           -8.2648     4.4601    -0.4154 H       
  46 H46           -8.5039     2.8157    -1.0534 H       
  47 H47          -10.5308     2.9003     1.9710 H       
  48 H48          -10.3497     4.2719     0.8511 H       
  49 H49          -10.5888     2.6275     0.2130 H       
@<TRIPOS>BOND
   1    1    2 ar
   2    1   20 1
   3    1    6 ar
   4    2    3 ar
   5    2   22 1
   6    3    4 ar
   7    3   33 1
   8    4    5 ar
   9    4    7 1
  10    5    6 ar
  11    5   34 1
  12    7   15 2
  13    7   18 1
  14    8    9 1
  15    8   16 1
  16    8   35 1
  17    9   10 ar
  18    9   14 ar
  19   10   11 ar
  20   10   36 1
  21   11   12 ar
  22   11   37 1
  23   12   13 ar
  24   12   38 1
  25   13   14 ar
  26   13   29 1
  27   14   39 1
  28   15   16 1
  29   16   17 2
  30   17   18 1
  31   18   19 am
  32   19   23 am
  33   19   24 2
  34   20   21 1
  35   21   22 1
  36   21   40 1
  37   21   41 1
  38   23   25 1
  39   23   42 1
  40   25   26 1
  41   25   43 1
  42   25   44 1
  43   26   27 1
  44   26   45 1
  45   26   46 1
  46   27   28 1
  47   28   47 1
  48   28   48 1
  49   28   49 1
  50   29   30 1
  51   29   31 1
  52   29   32 1

#	End of record

