#	Name: ASD09080025
#	Creating user name:	WinNT
#	Creation time:	15. 06. 2019 21:20

#	Modifying user name:	WinNT
#	Modification time:	15. 06. 2019 21:20

#	Program:	/corina/corina34_cracker 3.40 0067  02.08.2006

@<TRIPOS>MOLECULE
ASD09080025
  50   51    0    0    0
SMALL
NO_CHARGES


@<TRIPOS>ATOM
   1 C1            -0.0167     1.3799     0.0096 C.ar    
   2 C2             0.0021    -0.0041     0.0020 C.ar    
   3 C3            -1.1844    -0.7169     0.0091 C.ar    
   4 C4            -2.3938    -0.0494     0.0242 C.ar    
   5 C5            -2.4179     1.3436     0.0324 C.ar    
   6 C6            -1.2209     2.0565     0.0305 C.ar    
   7 Cl7            1.4756     2.2669     0.0001 Cl      
   8 Cl8           -1.1526    -2.4526    -0.0017 Cl      
   9 C9            -3.7143     2.0655     0.0481 C.ar    
  10 C10           -3.7388     3.4586     0.0563 C.ar    
  11 C11           -4.9474     4.1250     0.0704 C.ar    
  12 C12           -6.1329     3.4124     0.0765 C.ar    
  13 C13           -6.1145     2.0293     0.0689 C.ar    
  14 C14           -4.9116     1.3528     0.0489 C.ar    
  15 C15           -7.4494     4.1455     0.0919 C.3     
  16 C16           -7.9073     4.4019    -1.3453 C.3     
  17 C17           -9.3006     5.0339    -1.3316 C.3     
  18 N18           -6.9653     5.3107    -2.0032 N.am    
  19 C19           -9.7585     5.2902    -2.7688 C.3     
  20 C20          -11.1309     5.9127    -2.7553 C.2     
  21 O21          -11.3090     7.1333    -2.2259 O.3     
  22 O22          -12.0708     5.3132    -3.2210 O.2     
  23 C23           -6.8427     5.2984    -3.3453 C.2     
  24 C24           -5.8737     6.2333    -4.0220 C.3     
  25 O25           -7.5123     4.5350    -4.0084 O.2     
  26 O26           -5.9261     6.0321    -5.4358 O.3     
  27 C27           -5.0401     6.8742    -6.1760 C.3     
  28 O28           -9.8037     4.0529    -3.4822 O.3     
  29 O29           -9.2554     6.2712    -0.6182 O.3     
  30 H30            0.9456    -0.5295    -0.0098 H       
  31 H31           -3.3190    -0.6065     0.0293 H       
  32 H32           -1.2346     3.1364     0.0372 H       
  33 H33           -2.8137     4.0160     0.0519 H       
  34 H34           -4.9675     5.2048     0.0771 H       
  35 H35           -7.0430     1.4778     0.0744 H       
  36 H36           -4.8983     0.2729     0.0430 H       
  37 H37           -8.1955     3.5418     0.6087 H       
  38 H38           -7.3295     5.0969     0.6102 H       
  39 H39           -7.9418     3.4581    -1.8895 H       
  40 H40          -10.0015     4.3577    -0.8421 H       
  41 H41           -6.4298     5.9213    -1.4728 H       
  42 H42           -9.0576     5.9664    -3.2583 H       
  43 H43          -12.2073     7.4911    -2.2400 H       
  44 H44           -6.1423     7.2643    -3.7916 H       
  45 H45           -4.8642     6.0321    -3.6635 H       
  46 H46           -5.1398     6.6603    -7.2401 H       
  47 H47           -5.2915     7.9185    -5.9902 H       
  48 H48           -4.0133     6.6863    -5.8622 H       
  49 H49          -10.4088     3.4015    -3.1019 H       
  50 H50           -8.6504     6.9226    -0.9985 H       
@<TRIPOS>BOND
   1    1    2 ar
   2    1    7 1
   3    1    6 ar
   4    2    3 ar
   5    2   30 1
   6    3    4 ar
   7    3    8 1
   8    4    5 ar
   9    4   31 1
  10    5    6 ar
  11    5    9 1
  12    6   32 1
  13    9   10 ar
  14    9   14 ar
  15   10   11 ar
  16   10   33 1
  17   11   12 ar
  18   11   34 1
  19   12   13 ar
  20   12   15 1
  21   13   14 ar
  22   13   35 1
  23   14   36 1
  24   15   16 1
  25   15   37 1
  26   15   38 1
  27   16   17 1
  28   16   18 1
  29   16   39 1
  30   17   19 1
  31   17   29 1
  32   17   40 1
  33   18   23 am
  34   18   41 1
  35   19   20 1
  36   19   28 1
  37   19   42 1
  38   20   21 1
  39   20   22 2
  40   21   43 1
  41   23   24 1
  42   23   25 2
  43   24   26 1
  44   24   44 1
  45   24   45 1
  46   26   27 1
  47   27   46 1
  48   27   47 1
  49   27   48 1
  50   28   49 1
  51   29   50 1

#	End of record

