#	Name: ASD01915787
#	Creating user name:	WinNT
#	Creation time:	15. 06. 2019 20:06

#	Modifying user name:	WinNT
#	Modification time:	15. 06. 2019 20:06

#	Program:	/corina/corina34_cracker 3.40 0067  02.08.2006

@<TRIPOS>MOLECULE
ASD01915787
  47   50    0    0    0
SMALL
NO_CHARGES


@<TRIPOS>ATOM
   1 C1            -0.9292    -0.5681     0.3036 C.2     
   2 N2            -1.4147    -1.7967    -0.0849 N.pl3   
   3 C3            -2.8198    -1.9706    -0.4724 C.3     
   4 C4            -3.6823    -0.9679     0.2923 C.3     
   5 N5            -3.1336     0.3834     0.2611 N.am    
   6 C6            -1.8037     0.6113     0.3862 C.2     
   7 C7             0.4015    -0.7298     0.5692 C.2     
   8 C8             0.6566    -2.0872     0.3322 C.2     
   9 N9            -0.4674    -2.6502    -0.0460 N.2     
  10 C10            1.9868    -2.7788     0.4846 C.3     
  11 O11            2.9688    -1.8335     0.9135 O.3     
  12 C12            4.2322    -2.2980     1.1001 C.ar    
  13 O13           -1.3579     1.7299     0.5579 O.2     
  14 C14            5.2355    -1.4348     1.5161 C.ar    
  15 C15            4.5197    -3.6373     0.8804 C.ar    
  16 C16            5.8048    -4.1070     1.0707 C.ar    
  17 C17            6.8042    -3.2435     1.4798 C.ar    
  18 C18            6.5190    -1.9094     1.7049 C.ar    
  19 C19           -3.9975     1.4655     0.0987 C.ar    
  20 N20           -4.6130     1.9877     1.1477 N.ar    
  21 C21           -4.2134     2.0085    -1.1752 C.ar    
  22 N22           -5.0357     3.0363    -1.3202 N.ar    
  23 C23           -5.6500     3.5467    -0.2638 C.ar    
  24 C24           -5.4330     3.0154     0.9906 C.ar    
  25 N25           -3.5662     1.4702    -2.2828 N.3     
  26 C26           -4.4166     1.5465    -3.4781 C.3     
  27 C27           -2.2754     2.1330    -2.5118 C.3     
  28 H28           -2.9257    -1.7990    -1.5436 H       
  29 H29           -3.1407    -2.9842    -0.2322 H       
  30 H30           -4.6794    -0.9534    -0.1478 H       
  31 H31           -3.7623    -1.2916     1.3301 H       
  32 H32            1.1040     0.0247     0.8914 H       
  33 H33            1.9001    -3.5740     1.2250 H       
  34 H34            2.2865    -3.2049    -0.4729 H       
  35 H35            5.0134    -0.3926     1.6917 H       
  36 H36            3.7393    -4.3122     0.5612 H       
  37 H37            6.0290    -5.1496     0.9001 H       
  38 H38            7.8083    -3.6126     1.6280 H       
  39 H39            7.3015    -1.2368     2.0241 H       
  40 H40           -6.3199     4.3851    -0.3842 H       
  41 H41           -5.9377     3.4366     1.8475 H       
  42 H42           -4.6576     2.5889    -3.6866 H       
  43 H43           -3.8864     1.1190    -4.3291 H       
  44 H44           -5.3368     0.9883    -3.3056 H       
  45 H45           -1.6842     2.1034    -1.5965 H       
  46 H46           -1.7383     1.6174    -3.3080 H       
  47 H47           -2.4457     3.1701    -2.8010 H       
@<TRIPOS>BOND
   1    1    2 1
   2    1    7 2
   3    1    6 1
   4    2    3 1
   5    2    9 1
   6    3    4 1
   7    3   28 1
   8    3   29 1
   9    4    5 1
  10    4   30 1
  11    4   31 1
  12    5    6 am
  13    5   19 1
  14    6   13 2
  15    7    8 1
  16    7   32 1
  17    8    9 2
  18    8   10 1
  19   10   11 1
  20   10   33 1
  21   10   34 1
  22   11   12 1
  23   12   14 ar
  24   12   15 ar
  25   14   18 ar
  26   14   35 1
  27   15   16 ar
  28   15   36 1
  29   16   17 ar
  30   16   37 1
  31   17   18 ar
  32   17   38 1
  33   18   39 1
  34   19   21 ar
  35   19   20 ar
  36   20   24 ar
  37   21   22 ar
  38   21   25 1
  39   22   23 ar
  40   23   24 ar
  41   23   40 1
  42   24   41 1
  43   25   26 1
  44   25   27 1
  45   26   42 1
  46   26   43 1
  47   26   44 1
  48   27   45 1
  49   27   46 1
  50   27   47 1

#	End of record

