#	Name: ASD01911029
#	Creating user name:	WinNT
#	Creation time:	15. 06. 2019 19:57

#	Modifying user name:	WinNT
#	Modification time:	15. 06. 2019 19:57

#	Program:	/corina/corina34_cracker 3.40 0067  02.08.2006

@<TRIPOS>MOLECULE
ASD01911029
  55   58    0    0    0
SMALL
NO_CHARGES


@<TRIPOS>ATOM
   1 N1            -4.4863    -3.3047     1.1933 N.3     
   2 C2            -3.1148    -2.8182     1.3942 C.3     
   3 C3            -2.4441    -2.6136     0.0316 C.3     
   4 N4            -3.3008    -1.7397    -0.7842 N.am    
   5 C5            -4.7232    -2.0888    -0.9192 C.3     
   6 C6            -5.3041    -2.3140     0.4808 C.3     
   7 C7            -2.7956    -0.6482    -1.3924 C.2     
   8 C8            -3.6395     0.1423    -2.3104 C.ar    
   9 C9            -3.5680     1.5387    -2.2983 C.ar    
  10 C10           -4.3532     2.2815    -3.1534 C.ar    
  11 C11           -5.2203     1.6497    -4.0328 C.ar    
  12 C12           -5.3011     0.2477    -4.0538 C.ar    
  13 C13           -4.5037    -0.5036    -3.1938 C.ar    
  14 C14           -6.1961    -0.4070    -4.9598 C.1     
  15 O15           -1.6450    -0.3145    -1.1851 O.2     
  16 C16           -6.9299    -0.9438    -5.7026 C.1     
  17 C17           -7.8249    -1.5985    -6.6087 C.ar    
  18 C18           -7.9059    -2.9934    -6.6303 C.ar    
  19 C19           -8.7706    -3.6170    -7.5053 C.ar    
  20 C20           -9.5563    -2.8649    -8.3608 C.ar    
  21 C21           -9.4811    -1.4832    -8.3454 C.ar    
  22 C22           -8.6257    -0.8455    -7.4715 C.ar    
  23 C23           -5.0726    -3.6568     2.4042 C.ar    
  24 O24           -5.9905     2.3860    -4.8720 O.3     
  25 C25           -5.9287    -4.7528     2.4632 C.ar    
  26 C26           -6.5047    -5.0919     3.6754 C.ar    
  27 C27           -6.2040    -4.3211     4.7904 C.ar    
  28 C28           -5.3462    -3.2475     4.6590 C.ar    
  29 N29           -4.8073    -2.9500     3.4918 N.ar    
  30 C30           -5.8573     3.8067    -4.7963 C.3     
  31 Cl31          -6.2697    -5.6812     1.0365 Cl      
  32 N32          -10.4816    -3.5417    -9.2974 N.pl3   
  33 O33          -10.5499    -4.7577    -9.3138 O.2     
  34 O34          -11.1745    -2.8826   -10.0517 O.2     
  35 H35           -3.1401    -1.8710     1.9330 H       
  36 H36           -2.5500    -3.5504     1.9713 H       
  37 H37           -1.4695    -2.1456     0.1698 H       
  38 H38           -2.3240    -3.5762    -0.4655 H       
  39 H39           -5.2553    -1.2737    -1.4097 H       
  40 H40           -4.8221    -3.0009    -1.5078 H       
  41 H41           -6.3271    -2.6805     0.3955 H       
  42 H42           -5.2989    -1.3738     1.0323 H       
  43 H43           -2.8953     2.0371    -1.6160 H       
  44 H44           -4.2934     3.3598    -3.1387 H       
  45 H45           -4.5607    -1.5820    -3.2051 H       
  46 H46           -7.2928    -3.5817    -5.9637 H       
  47 H47           -8.8343    -4.6950    -7.5232 H       
  48 H48          -10.0969    -0.9027    -9.0164 H       
  49 H49           -8.5683     0.2329    -7.4603 H       
  50 H50           -7.1732    -5.9368     3.7520 H       
  51 H51           -6.6371    -4.5589     5.7507 H       
  52 H52           -5.1101    -2.6452     5.5239 H       
  53 H53           -6.5272     4.2735    -5.5184 H       
  54 H54           -6.1148     4.1428    -3.7918 H       
  55 H55           -4.8283     4.0877    -5.0208 H       
@<TRIPOS>BOND
   1    1    2 1
   2    1   23 1
   3    1    6 1
   4    2    3 1
   5    2   35 1
   6    2   36 1
   7    3    4 1
   8    3   37 1
   9    3   38 1
  10    4    5 1
  11    4    7 am
  12    5    6 1
  13    5   39 1
  14    5   40 1
  15    6   41 1
  16    6   42 1
  17    7    8 1
  18    7   15 2
  19    8    9 ar
  20    8   13 ar
  21    9   10 ar
  22    9   43 1
  23   10   11 ar
  24   10   44 1
  25   11   12 ar
  26   11   24 1
  27   12   13 ar
  28   12   14 1
  29   13   45 1
  30   14   16 3
  31   16   17 1
  32   17   18 ar
  33   17   22 ar
  34   18   19 ar
  35   18   46 1
  36   19   20 ar
  37   19   47 1
  38   20   21 ar
  39   20   32 1
  40   21   22 ar
  41   21   48 1
  42   22   49 1
  43   23   25 ar
  44   23   29 ar
  45   24   30 1
  46   25   26 ar
  47   25   31 1
  48   26   27 ar
  49   26   50 1
  50   27   28 ar
  51   27   51 1
  52   28   29 ar
  53   28   52 1
  54   30   53 1
  55   30   54 1
  56   30   55 1
  57   32   33 2
  58   32   34 2

#	End of record

