#	Name: ASD02508324
#	Creating user name:	WinNT
#	Creation time:	15. 06. 2019 20:24

#	Modifying user name:	WinNT
#	Modification time:	15. 06. 2019 20:24

#	Program:	/corina/corina34_cracker 3.40 0067  02.08.2006

@<TRIPOS>MOLECULE
ASD02508324
  59   61    0    0    0
SMALL
NO_CHARGES


@<TRIPOS>ATOM
   1 C1            -0.1525     1.2900    -0.2761 C.ar    
   2 C2            -0.0586    -0.0707    -0.5405 C.ar    
   3 C3             1.1891    -0.6772    -0.6085 C.ar    
   4 C4             2.3318     0.0737    -0.4132 C.ar    
   5 C5             2.2347     1.4276    -0.1503 C.ar    
   6 C6             0.9939     2.0347    -0.0819 C.ar    
   7 S7             3.6950     2.3817     0.0982 S.o2    
   8 O8             3.4824     3.1400     1.2811 O.2     
   9 O9             4.7895     1.4908    -0.0676 O.2     
  10 C10            3.7922     3.5409    -1.2252 C.ar    
  11 C11            3.2035     4.7856    -1.0968 C.ar    
  12 C12            3.2779     5.6964    -2.1323 C.ar    
  13 C13            3.9451     5.3614    -3.3032 C.ar    
  14 C14            4.5356     4.1108    -3.4289 C.ar    
  15 C15            4.4618     3.2061    -2.3878 C.ar    
  16 N16           -1.2162    -0.8271    -0.7371 N.am    
  17 C17           -1.5136    -1.9549     0.1494 C.3     
  18 S18           -2.2525    -0.4491    -1.9722 S.o2    
  19 C19           -1.6570    -1.2593    -3.4191 C.ar    
  20 O20           -3.4958    -1.0591    -1.6537 O.2     
  21 O21           -2.1079     0.9452    -2.2048 O.2     
  22 N22            4.0219     6.2818    -4.3543 N.am    
  23 C23            4.0907     7.6017    -4.0906 C.2     
  24 O24            4.1726     7.9875    -2.9437 O.2     
  25 C25            4.0657     8.5982    -5.2209 C.3     
  26 C26            0.8929     3.5106     0.2054 C.3     
  27 C27           -2.2351    -1.4452     1.3987 C.3     
  28 C28           -2.0881    -2.5371    -3.7228 C.ar    
  29 C29           -1.6209    -3.1727    -4.8579 C.ar    
  30 C30           -0.7229    -2.5304    -5.6897 C.ar    
  31 C31           -0.2924    -1.2522    -5.3865 C.ar    
  32 C32           -0.7630    -0.6149    -4.2536 C.ar    
  33 C33           -0.2127    -3.2237    -6.9266 C.3     
  34 H34           -1.1209     1.7656    -0.2270 H       
  35 H35            1.2656    -1.7348    -0.8135 H       
  36 H36            3.3023    -0.3974    -0.4656 H       
  37 H37            2.6848     5.0456    -0.1859 H       
  38 H38            2.8173     6.6681    -2.0316 H       
  39 H39            5.0553     3.8472    -4.3382 H       
  40 H40            4.9211     2.2335    -2.4848 H       
  41 H41           -2.1509    -2.6689    -0.3723 H       
  42 H42           -0.5836    -2.4431     0.4407 H       
  43 H43            4.0256     5.9698    -5.2728 H       
  44 H44            3.9893     8.0686    -6.1705 H       
  45 H45            3.2071     9.2593    -5.1034 H       
  46 H46            4.9826     9.1874    -5.2061 H       
  47 H47            0.9104     4.0654    -0.7327 H       
  48 H48           -0.0396     3.7155     0.7313 H       
  49 H49            1.7349     3.8185     0.8254 H       
  50 H50           -2.4563    -2.2843     2.0582 H       
  51 H51           -1.5978    -0.7312     1.9204 H       
  52 H52           -3.1650    -0.9570     1.1073 H       
  53 H53           -2.7897    -3.0390    -3.0729 H       
  54 H54           -1.9572    -4.1713    -5.0948 H       
  55 H55            0.4094    -0.7504    -6.0361 H       
  56 H56           -0.4267     0.3837    -4.0168 H       
  57 H57           -0.8708    -2.9998    -7.7662 H       
  58 H58            0.7945    -2.8724    -7.1508 H       
  59 H59           -0.1928    -4.3003    -6.7576 H       
@<TRIPOS>BOND
   1    1    2 ar
   2    1    6 ar
   3    1   34 1
   4    2    3 ar
   5    2   16 1
   6    3    4 ar
   7    3   35 1
   8    4    5 ar
   9    4   36 1
  10    5    6 ar
  11    5    7 1
  12    6   26 1
  13    7    8 2
  14    7    9 2
  15    7   10 1
  16   10   11 ar
  17   10   15 ar
  18   11   12 ar
  19   11   37 1
  20   12   13 ar
  21   12   38 1
  22   13   14 ar
  23   13   22 1
  24   14   15 ar
  25   14   39 1
  26   15   40 1
  27   16   17 1
  28   16   18 am
  29   17   27 1
  30   17   41 1
  31   17   42 1
  32   18   19 1
  33   18   20 2
  34   18   21 2
  35   19   28 ar
  36   19   32 ar
  37   22   23 am
  38   22   43 1
  39   23   24 2
  40   23   25 1
  41   25   44 1
  42   25   45 1
  43   25   46 1
  44   26   47 1
  45   26   48 1
  46   26   49 1
  47   27   50 1
  48   27   51 1
  49   27   52 1
  50   28   29 ar
  51   28   53 1
  52   29   30 ar
  53   29   54 1
  54   30   31 ar
  55   30   33 1
  56   31   32 ar
  57   31   55 1
  58   32   56 1
  59   33   57 1
  60   33   58 1
  61   33   59 1

#	End of record

