#	Name: ASD03330764
#	Creating user name:	WinNT
#	Creation time:	15. 06. 2019 20:37

#	Modifying user name:	WinNT
#	Modification time:	15. 06. 2019 20:37

#	Program:	/corina/corina34_cracker 3.40 0067  02.08.2006

@<TRIPOS>MOLECULE
ASD03330764
  63   65    0    0    0
SMALL
NO_CHARGES


@<TRIPOS>ATOM
   1 C1             0.7797     1.4284     0.2190 C.2     
   2 N2             0.6852     0.0726     0.2674 N.pl3   
   3 C3             2.0968     1.7323     0.0548 C.2     
   4 N4             2.7830     0.5701    -0.0121 N.2     
   5 C5             1.9430    -0.4314     0.1087 C.2     
   6 C6             2.3003    -1.8659     0.0776 C.ar    
   7 C7             2.6710     3.0864    -0.0344 C.2     
   8 O8             1.9464     4.0603     0.0395 O.2     
   9 C9             4.5703     4.5918    -0.2866 C.3     
  10 N10            3.9993     3.2456    -0.1979 N.am    
  11 C11            5.8893     4.5364    -1.0600 C.3     
  12 C12            4.8235     5.1225     1.1009 C.2     
  13 O13            4.5536     4.4431     2.0687 O.2     
  14 C14           -0.5521    -0.6863     0.4690 C.3     
  15 C15           -1.6386    -0.1310    -0.4573 C.3     
  16 C16           -2.3657     1.0190     0.2321 C.3     
  17 N17           -1.4557     1.7777     1.0924 N.3     
  18 C18           -0.3726     2.3947     0.3123 C.3     
  19 C19            1.8062    -2.7321     1.0540 C.ar    
  20 C20            3.1293    -2.3604    -0.9327 C.ar    
  21 C21            3.4597    -3.7022    -0.9563 C.ar    
  22 C22            2.9703    -4.5552     0.0185 C.ar    
  23 C23            2.1426    -4.0697     1.0205 C.ar    
  24 C24           -2.1859     2.7878     1.8700 C.3     
  25 N25            5.3499     6.3521     1.2665 N.am    
  26 C26            5.5961     6.8680     2.6154 C.3     
  27 C27            5.6111     4.1582    -2.5162 C.3     
  28 C28            5.0624     2.7312    -2.5766 C.3     
  29 C29            4.5832     5.1253    -3.1069 C.3     
  30 C30            6.9096     4.2397    -3.3213 C.3     
  31 F31            3.2955    -5.8662    -0.0096 F       
  32 Cl32           1.5337    -5.1466     2.2384 Cl      
  33 F33            3.6065    -1.5288    -1.8845 F       
  34 H34            3.8723     5.2490    -0.8052 H       
  35 H35            4.5773     2.4688    -0.2568 H       
  36 H36            6.3727     5.5127    -1.0242 H       
  37 H37            6.5436     3.7902    -0.6094 H       
  38 H38           -0.3772    -1.7368     0.2365 H       
  39 H39           -0.8735    -0.5903     1.5061 H       
  40 H40           -1.1802     0.2300    -1.3780 H       
  41 H41           -2.3516    -0.9208    -0.6939 H       
  42 H42           -2.7806     1.6847    -0.5247 H       
  43 H43           -3.1781     0.6168     0.8374 H       
  44 H44           -0.0428     3.3087     0.8062 H       
  45 H45           -0.7331     2.6299    -0.6891 H       
  46 H46            1.1617    -2.3558     1.8347 H       
  47 H47            4.1004    -4.0860    -1.7365 H       
  48 H48           -2.9303     2.2960     2.4962 H       
  49 H49           -1.4863     3.3367     2.5003 H       
  50 H50           -2.6828     3.4801     1.1904 H       
  51 H51            5.5658     6.8955     0.4925 H       
  52 H52            4.6564     6.9075     3.1663 H       
  53 H53            6.2940     6.2108     3.1340 H       
  54 H54            6.0209     7.8697     2.5493 H       
  55 H55            4.0627     2.7077    -2.1427 H       
  56 H56            5.0155     2.4037    -3.6152 H       
  57 H57            5.7179     2.0658    -2.0150 H       
  58 H58            4.9742     6.1419    -3.0639 H       
  59 H59            4.3850     4.8559    -4.1443 H       
  60 H60            3.6581     5.0672    -2.5334 H       
  61 H61            7.6419     3.5507    -2.9004 H       
  62 H62            6.7114     3.9702    -4.3587 H       
  63 H63            7.3006     5.2563    -3.2783 H       
@<TRIPOS>BOND
   1    1    2 1
   2    1    3 2
   3    1   18 1
   4    2   14 1
   5    2    5 1
   6    3    4 1
   7    3    7 1
   8    4    5 2
   9    5    6 1
  10    6   20 ar
  11    6   19 ar
  12    7    8 2
  13    7   10 am
  14    9   10 1
  15    9   11 1
  16    9   12 1
  17    9   34 1
  18   10   35 1
  19   11   27 1
  20   11   36 1
  21   11   37 1
  22   12   13 2
  23   12   25 am
  24   14   15 1
  25   14   38 1
  26   14   39 1
  27   15   16 1
  28   15   40 1
  29   15   41 1
  30   16   17 1
  31   16   42 1
  32   16   43 1
  33   17   18 1
  34   17   24 1
  35   18   44 1
  36   18   45 1
  37   19   23 ar
  38   19   46 1
  39   20   21 ar
  40   20   33 1
  41   21   22 ar
  42   21   47 1
  43   22   23 ar
  44   22   31 1
  45   23   32 1
  46   24   48 1
  47   24   49 1
  48   24   50 1
  49   25   26 1
  50   25   51 1
  51   26   52 1
  52   26   53 1
  53   26   54 1
  54   27   29 1
  55   27   30 1
  56   27   28 1
  57   28   55 1
  58   28   56 1
  59   28   57 1
  60   29   58 1
  61   29   59 1
  62   29   60 1
  63   30   61 1
  64   30   62 1
  65   30   63 1

#	End of record

