#	Name: ASD01812968
#	Creating user name:	WinNT
#	Creation time:	15. 06. 2019 19:29

#	Modifying user name:	WinNT
#	Modification time:	15. 06. 2019 19:29

#	Program:	/corina/corina34_cracker 3.40 0067  02.08.2006

@<TRIPOS>MOLECULE
ASD01812968
  56   60    0    0    0
SMALL
NO_CHARGES


@<TRIPOS>ATOM
   1 C1             0.4805     1.9292     0.6196 C.ar    
   2 C2             0.3828     0.5523     0.5935 C.ar    
   3 C3             1.5233    -0.2278     0.4757 C.ar    
   4 C4             2.7585     0.3665     0.3837 C.ar    
   5 C5             2.8763     1.7596     0.4081 C.ar    
   6 C6             1.7208     2.5437     0.5277 C.ar    
   7 C7             4.1593    -0.1764     0.2488 C.3     
   8 N8             5.0478     0.9905     0.2007 N.am    
   9 C9             4.3026     2.1053     0.2930 C.2     
  10 C10            6.5067     0.9475     0.0736 C.3     
  11 C11            6.8846     0.9675    -1.3851 C.ar    
  12 O12            1.8147     3.8967     0.5531 O.3     
  13 O13            4.7438     3.2383     0.2832 O.2     
  14 C14            7.0953     2.1740    -2.0269 C.ar    
  15 C15            7.4414     2.1951    -3.3641 C.ar    
  16 C16            7.5780     1.0043    -4.0630 C.ar    
  17 C17            7.3665    -0.2051    -3.4164 C.ar    
  18 C18            7.0256    -0.2208    -2.0778 C.ar    
  19 C19            7.9615     2.2257    -6.0101 C.2     
  20 O20            7.9179     1.0224    -5.3785 O.3     
  21 C21            0.5942     4.6296     0.6766 C.3     
  22 C22            0.8985     6.1290     0.6875 C.3     
  23 O23            1.4144     6.5293    -0.5874 O.3     
  24 C24            0.5326     7.4870    -1.1947 C.3     
  25 C25           -0.2287     8.1414    -0.0144 C.3     
  26 C26           -0.4006     6.9252     0.9360 C.3     
  27 N27            7.5938     3.3766    -5.5004 N.2     
  28 C28            8.4135     2.4535    -7.3187 C.2     
  29 C29            8.2979     3.7769    -7.5734 C.2     
  30 N30            7.7951     4.3680    -6.4693 N.pl3   
  31 C31            7.5131     5.7968    -6.3104 C.3     
  32 H32           -0.4124     2.5303     0.7074 H       
  33 H33           -0.5861     0.0807     0.6655 H       
  34 H34            1.4403    -1.3045     0.4565 H       
  35 H35            4.4045    -0.7988     1.1094 H       
  36 H36            4.2502    -0.7547    -0.6707 H       
  37 H37            6.9406     1.8135     0.5733 H       
  38 H38            6.8848     0.0349     0.5344 H       
  39 H39            6.9888     3.1006    -1.4824 H       
  40 H40            7.6051     3.1378    -3.8651 H       
  41 H41            7.4722    -1.1334    -3.9582 H       
  42 H42            6.8652    -1.1620    -1.5730 H       
  43 H43           -0.0562     4.3969    -0.1665 H       
  44 H44            0.0969     4.3530     1.6063 H       
  45 H45            1.6260     6.3529     1.4676 H       
  46 H46            1.1061     8.2380    -1.7379 H       
  47 H47           -0.1664     6.9861    -1.8645 H       
  48 H48            0.3691     8.9239     0.4530 H       
  49 H49           -1.1955     8.5279    -0.3367 H       
  50 H50           -1.2752     6.3369     0.6588 H       
  51 H51           -0.4636     7.2504     1.9745 H       
  52 H52            8.7880     1.7050    -8.0013 H       
  53 H53            8.5633     4.2728    -8.4954 H       
  54 H54            8.3974     6.3006    -5.9203 H       
  55 H55            7.2481     6.2245    -7.2774 H       
  56 H56            6.6837     5.9283    -5.6154 H       
@<TRIPOS>BOND
   1    1    2 ar
   2    1    6 ar
   3    1   32 1
   4    2    3 ar
   5    2   33 1
   6    3    4 ar
   7    3   34 1
   8    4    7 1
   9    4    5 ar
  10    5    6 ar
  11    5    9 1
  12    6   12 1
  13    7    8 1
  14    7   35 1
  15    7   36 1
  16    8    9 am
  17    8   10 1
  18    9   13 2
  19   10   11 1
  20   10   37 1
  21   10   38 1
  22   11   14 ar
  23   11   18 ar
  24   12   21 1
  25   14   15 ar
  26   14   39 1
  27   15   16 ar
  28   15   40 1
  29   16   17 ar
  30   16   20 1
  31   17   18 ar
  32   17   41 1
  33   18   42 1
  34   19   20 1
  35   19   28 1
  36   19   27 2
  37   21   22 1
  38   21   43 1
  39   21   44 1
  40   22   23 1
  41   22   26 1
  42   22   45 1
  43   23   24 1
  44   24   25 1
  45   24   46 1
  46   24   47 1
  47   25   26 1
  48   25   48 1
  49   25   49 1
  50   26   50 1
  51   26   51 1
  52   27   30 1
  53   28   29 2
  54   28   52 1
  55   29   30 1
  56   29   53 1
  57   30   31 1
  58   31   54 1
  59   31   55 1
  60   31   56 1

#	End of record

