#	Name: ASD01812872
#	Creating user name:	WinNT
#	Creation time:	15. 06. 2019 19:29

#	Modifying user name:	WinNT
#	Modification time:	15. 06. 2019 19:29

#	Program:	/corina/corina34_cracker 3.40 0067  02.08.2006

@<TRIPOS>MOLECULE
ASD01812872
  49   53    0    0    0
SMALL
NO_CHARGES


@<TRIPOS>ATOM
   1 N1            -0.0158     1.3130     0.0093 N.ar    
   2 C2             0.0021    -0.0041     0.0020 C.ar    
   3 N3             1.1297    -0.6935    -0.0120 N.ar    
   4 C4             2.2938    -0.0791    -0.0198 C.ar    
   5 C5             2.3343     1.3181    -0.0131 C.ar    
   6 C6             1.1136     2.0142     0.0022 C.ar    
   7 C7             3.7270    -0.5438    -0.0361 C.3     
   8 N8             4.5519     0.6706    -0.0379 N.am    
   9 C9             3.7403     1.7433    -0.0246 C.2     
  10 C10            6.0163     0.7080    -0.0519 C.3     
  11 C11            6.5047     0.7281    -1.4775 C.ar    
  12 C12            6.6974     1.9361    -2.1230 C.ar    
  13 C13            7.1450     1.9601    -3.4284 C.ar    
  14 C14            7.4027     0.7649    -4.0958 C.ar    
  15 C15            7.2069    -0.4490    -3.4410 C.ar    
  16 C16            6.7641    -0.4615    -2.1338 C.ar    
  17 O17            1.0884     3.3667     0.0093 O.3     
  18 O18            4.1167     2.8995    -0.0228 O.2     
  19 C19           -0.1238     3.9825     0.0237 C.ar    
  20 C20           -0.7329     4.2916     1.2330 C.ar    
  21 C21           -1.9665     4.9182     1.2440 C.ar    
  22 C22           -2.5922     5.2358     0.0529 C.ar    
  23 C23           -1.9878     4.9291    -1.1523 C.ar    
  24 C24           -0.7523     4.3086    -1.1699 C.ar    
  25 F25           -0.1219     3.9804     2.3971 F       
  26 C26            8.1736    -0.3050    -6.2686 C.2     
  27 C27            7.8839     0.7846    -5.5003 C.2     
  28 C28            8.1237     1.9315    -6.2819 C.2     
  29 N29            8.5364     1.5416    -7.4588 N.2     
  30 N30            8.5761     0.1422    -7.4752 N.pl3   
  31 C31            8.9850    -0.6923    -8.6079 C.3     
  32 Cl32           0.0087     3.9311    -2.6838 Cl      
  33 H33           -0.9363    -0.5387     0.0081 H       
  34 H34            3.9381    -1.1388     0.8526 H       
  35 H35            3.9208    -1.1297    -0.9346 H       
  36 H36            6.3618     1.6044     0.4631 H       
  37 H37            6.4072    -0.1749     0.4537 H       
  38 H38            6.4970     2.8622    -1.6047 H       
  39 H39            7.2948     2.9039    -3.9316 H       
  40 H40            7.4053    -1.3785    -3.9540 H       
  41 H41            6.6159    -1.4019    -1.6238 H       
  42 H42           -2.4410     5.1589     2.1838 H       
  43 H43           -3.5554     5.7243     0.0638 H       
  44 H44           -2.4794     5.1783    -2.0810 H       
  45 H45            8.0986    -1.3384    -5.9640 H       
  46 H46            7.9893     2.9549    -5.9640 H       
  47 H47            8.1145    -0.9232    -9.2219 H       
  48 H48            9.7205    -0.1560    -9.2074 H       
  49 H49            9.4241    -1.6184    -8.2370 H       
@<TRIPOS>BOND
   1    1    2 ar
   2    1    6 ar
   3    2    3 ar
   4    2   33 1
   5    3    4 ar
   6    4    7 1
   7    4    5 ar
   8    5    6 ar
   9    5    9 1
  10    6   17 1
  11    7    8 1
  12    7   34 1
  13    7   35 1
  14    8    9 am
  15    8   10 1
  16    9   18 2
  17   10   11 1
  18   10   36 1
  19   10   37 1
  20   11   12 ar
  21   11   16 ar
  22   12   13 ar
  23   12   38 1
  24   13   14 ar
  25   13   39 1
  26   14   15 ar
  27   14   27 1
  28   15   16 ar
  29   15   40 1
  30   16   41 1
  31   17   19 1
  32   19   20 ar
  33   19   24 ar
  34   20   21 ar
  35   20   25 1
  36   21   22 ar
  37   21   42 1
  38   22   23 ar
  39   22   43 1
  40   23   24 ar
  41   23   44 1
  42   24   32 1
  43   26   30 1
  44   26   27 2
  45   26   45 1
  46   27   28 1
  47   28   29 2
  48   28   46 1
  49   29   30 1
  50   30   31 1
  51   31   47 1
  52   31   48 1
  53   31   49 1

#	End of record

