#	Name: ASD01180032
#	Creating user name:	WinNT
#	Creation time:	15. 06. 2019 19:06

#	Modifying user name:	WinNT
#	Modification time:	15. 06. 2019 19:06

#	Program:	/corina/corina34_cracker 3.40 0067  02.08.2006

@<TRIPOS>MOLECULE
ASD01180032
  32   34    0    0    0
SMALL
NO_CHARGES


@<TRIPOS>ATOM
   1 N1            -0.0468     1.2022     0.1812 N.ar    
   2 C2             0.0686    -0.1007     0.0930 C.ar    
   3 C3             1.3277    -0.6968    -0.0983 C.ar    
   4 N4             2.4134     0.0469    -0.1919 N.ar    
   5 C5             2.3133     1.3794    -0.1043 C.ar    
   6 C6             3.4509     2.1977    -0.1997 C.ar    
   7 C7             3.3201     3.5507    -0.1067 C.ar    
   8 C8             2.0687     4.1381     0.0829 C.ar    
   9 C9             0.9449     3.3743     0.1802 C.ar    
  10 C10            1.0423     1.9759     0.0884 C.ar    
  11 S11           -1.3674    -1.1144     0.2158 S.o2    
  12 O12           -0.8748    -2.3657     0.6750 O.2     
  13 O13           -2.2703    -0.3493     1.0022 O.2     
  14 C14           -1.9697    -1.2545    -1.4896 C.3     
  15 Cl15           1.9422     5.8657     0.1971 Cl      
  16 Cl16           4.7294     4.5574    -0.2253 Cl      
  17 C17            1.7072    -4.2290     0.5150 C.2     
  18 N18            1.4291    -2.0772    -0.1887 N.pl3   
  19 C19            1.3231    -2.8576    -1.4292 C.3     
  20 C20            1.5050    -4.3194    -0.9806 C.3     
  21 N21            1.6479    -2.9411     0.8824 N.am    
  22 O22            1.8883    -5.1680     1.2608 O.2     
  23 H23            4.4256     1.7561    -0.3458 H       
  24 H24           -0.0173     3.8420     0.3276 H       
  25 H25           -1.1999    -1.7129    -2.1103 H       
  26 H26           -2.8673    -1.8727    -1.5083 H       
  27 H27           -2.2039    -0.2621    -1.8749 H       
  28 H28            0.3423    -2.7183    -1.8838 H       
  29 H29            2.1108    -2.5727    -2.1266 H       
  30 H30            2.3812    -4.7582    -1.4578 H       
  31 H31            0.6129    -4.9023    -1.2100 H       
  32 H32            1.7492    -2.6413     1.7993 H       
@<TRIPOS>BOND
   1    1    2 ar
   2    1   10 ar
   3    2    3 ar
   4    2   11 1
   5    3    4 ar
   6    3   18 1
   7    4    5 ar
   8    5    6 ar
   9    5   10 ar
  10    6    7 ar
  11    6   23 1
  12    7    8 ar
  13    7   16 1
  14    8    9 ar
  15    8   15 1
  16    9   10 ar
  17    9   24 1
  18   11   12 2
  19   11   13 2
  20   11   14 1
  21   14   25 1
  22   14   26 1
  23   14   27 1
  24   17   22 2
  25   17   20 1
  26   17   21 am
  27   18   19 1
  28   18   21 1
  29   19   20 1
  30   19   28 1
  31   19   29 1
  32   20   30 1
  33   20   31 1
  34   21   32 1

#	End of record

