#	Name: ASD01917791
#	Creating user name:	WinNT
#	Creation time:	15. 06. 2019 20:10

#	Modifying user name:	WinNT
#	Modification time:	15. 06. 2019 20:10

#	Program:	/corina/corina34_cracker 3.40 0067  02.08.2006

@<TRIPOS>MOLECULE
ASD01917791
  44   47    0    0    0
SMALL
NO_CHARGES


@<TRIPOS>ATOM
   1 C1            -0.0137     1.3189    -0.0043 C.2     
   2 C2            -0.0103    -0.0279     0.0049 C.2     
   3 C3            -1.2498    -0.8860     0.0243 C.3     
   4 C4            -2.4379    -0.0295     0.4797 C.3     
   5 N5            -2.4044     1.2579    -0.2303 N.am    
   6 C6            -1.2653     2.1613     0.0138 C.3     
   7 C7            -3.3897     1.6029    -1.0828 C.2     
   8 O8            -4.2642     0.8042    -1.3563 O.2     
   9 C9            -3.4069     2.9531    -1.6853 C.ar    
  10 O10            1.2628     1.7240    -0.0257 O.3     
  11 C11            2.0355     0.6262    -0.0260 C.2     
  12 N12            1.2680    -0.4290    -0.0071 N.2     
  13 C13            3.5423     0.6144    -0.0454 C.3     
  14 O14            4.0011     0.5993    -1.3986 O.3     
  15 C15            5.3460     0.5872    -1.5940 C.ar    
  16 C16            5.8608     0.5722    -2.8822 C.ar    
  17 C17            7.2282     0.5599    -3.0782 C.ar    
  18 C18            8.0835     0.5625    -1.9918 C.ar    
  19 C19            7.5729     0.5769    -0.7070 C.ar    
  20 C20            6.2063     0.5955    -0.5057 C.ar    
  21 C21           -3.8632     3.1297    -2.9894 C.ar    
  22 C22           -3.8765     4.4061    -3.5496 C.ar    
  23 C23           -3.4327     5.4987    -2.8005 C.ar    
  24 C24           -2.9813     5.3160    -1.5084 C.ar    
  25 C25           -2.9710     4.0553    -0.9458 C.ar    
  26 C26           -4.3435     4.5968    -4.8898 C.1     
  27 N27           -4.7139     4.7482    -5.9530 N.1     
  28 H28           -1.4413    -1.2737    -0.9762 H       
  29 H29           -1.1096    -1.7146     0.7185 H       
  30 H30           -3.3693    -0.5476     0.2511 H       
  31 H31           -2.3710     0.1448     1.5536 H       
  32 H32           -1.3746     2.6418     0.9861 H       
  33 H33           -1.2159     2.9164    -0.7707 H       
  34 H34            3.9192     1.5058     0.4561 H       
  35 H35            3.9054    -0.2741     0.4713 H       
  36 H36            5.1931     0.5698    -3.7311 H       
  37 H37            7.6295     0.5478    -4.0808 H       
  38 H38            9.1523     0.5528    -2.1471 H       
  39 H39            8.2431     0.5782     0.1400 H       
  40 H40            5.8079     0.6069     0.4980 H       
  41 H41           -4.2048     2.2815    -3.5641 H       
  42 H42           -3.4424     6.4882    -3.2331 H       
  43 H43           -2.6389     6.1639    -0.9336 H       
  44 H44           -2.6169     3.9195     0.0655 H       
@<TRIPOS>BOND
   1    1    2 2
   2    1   10 1
   3    1    6 1
   4    2    3 1
   5    2   12 1
   6    3    4 1
   7    3   28 1
   8    3   29 1
   9    4    5 1
  10    4   30 1
  11    4   31 1
  12    5    6 1
  13    5    7 am
  14    6   32 1
  15    6   33 1
  16    7    8 2
  17    7    9 1
  18    9   21 ar
  19    9   25 ar
  20   10   11 1
  21   11   12 2
  22   11   13 1
  23   13   14 1
  24   13   34 1
  25   13   35 1
  26   14   15 1
  27   15   16 ar
  28   15   20 ar
  29   16   17 ar
  30   16   36 1
  31   17   18 ar
  32   17   37 1
  33   18   19 ar
  34   18   38 1
  35   19   20 ar
  36   19   39 1
  37   20   40 1
  38   21   22 ar
  39   21   41 1
  40   22   26 1
  41   22   23 ar
  42   23   24 ar
  43   23   42 1
  44   24   25 ar
  45   24   43 1
  46   25   44 1
  47   26   27 3

#	End of record

