#	Name: ASD03240041
#	Creating user name:	WinNT
#	Creation time:	15. 06. 2019 20:34

#	Modifying user name:	WinNT
#	Modification time:	15. 06. 2019 20:34

#	Program:	/corina/corina34_cracker 3.40 0067  02.08.2006

@<TRIPOS>MOLECULE
ASD03240041
  86   92    0    0    0
SMALL
NO_CHARGES


@<TRIPOS>ATOM
   1 N1            -0.0158     1.3164     0.0093 N.ar    
   2 C2             0.0021    -0.0041     0.0020 C.ar    
   3 C3             1.2819    -0.7113    -0.0140 C.ar    
   4 N4             2.4083    -0.0234    -0.0210 N.ar    
   5 C5             2.3746     1.3146    -0.0135 C.ar    
   6 C6             3.5702     2.0523    -0.0208 C.ar    
   7 C7             3.5204     3.4362    -0.0130 C.ar    
   8 C8             2.2838     4.1045     0.0023 C.ar    
   9 C9             1.1182     3.4088     0.0096 C.ar    
  10 C10            1.1334     2.0010     0.0020 C.ar    
  11 C11            4.7762     4.2160    -0.0202 C.2     
  12 O12            5.8478     3.6423    -0.0329 O.2     
  13 N13            4.7330     5.5631    -0.0125 N.am    
  14 C14           -1.2683    -0.7652     0.0106 C.ar    
  15 C15           -2.3699    -0.2812     0.7161 C.ar    
  16 C16           -3.5509    -0.9947     0.7198 C.ar    
  17 C17           -3.6436    -2.1881     0.0261 C.ar    
  18 C18           -2.5543    -2.6737    -0.6752 C.ar    
  19 C19           -1.3698    -1.9662    -0.6916 C.ar    
  20 C20            1.3141    -2.1923    -0.0218 C.ar    
  21 C21            2.3103    -2.8672    -0.7268 C.ar    
  22 C22            2.3349    -4.2469    -0.7304 C.ar    
  23 C23            1.3741    -4.9604    -0.0365 C.ar    
  24 C24            0.3833    -4.2966     0.6647 C.ar    
  25 C25            0.3516    -2.9172     0.6804 C.ar    
  26 C26            1.4064    -6.4671    -0.0449 C.3     
  27 N27            2.2223    -6.9456     1.0790 N.3     
  28 C28            2.0866    -8.3981     1.2469 C.3     
  29 C29            2.8309    -8.8388     2.5095 C.3     
  30 C30            4.3083    -8.4564     2.3848 C.3     
  31 C31            4.4193    -6.9455     2.1624 C.3     
  32 C32            3.6291    -6.5597     0.9099 C.3     
  33 C33            4.7385    -8.3622     4.8493 C.2     
  34 N34            5.0144    -8.8234     3.6148 N.am    
  35 C35            6.0854    -9.7092     3.7065 C.ar    
  36 C36            6.4482    -9.7655     5.0541 C.ar    
  37 N37            5.5863    -8.9122     5.7389 N.am    
  38 C38            7.4987   -10.5773     5.4528 C.ar    
  39 C39            8.1823   -11.3272     4.5153 C.ar    
  40 C40            7.8228   -11.2714     3.1800 C.ar    
  41 C41            6.7773   -10.4653     2.7732 C.ar    
  42 O42            3.8595    -7.5651     5.1193 O.2     
  43 C43            5.9775     6.3359    -0.0197 C.3     
  44 C44            5.6499     7.8304    -0.0087 C.3     
  45 N45            6.8979     8.6053    -0.0158 N.3     
  46 C46            6.6217    10.0481    -0.0056 C.3     
  47 C47            7.9426    10.8202    -0.0134 C.3     
  48 H48            4.5225     1.5430    -0.0322 H       
  49 H49            2.2609     5.1842     0.0086 H       
  50 H50            0.1762     3.9369     0.0213 H       
  51 H51            3.8779     6.0208    -0.0023 H       
  52 H52           -2.2986     0.6499     1.2586 H       
  53 H53           -4.4046    -0.6210     1.2657 H       
  54 H54           -4.5700    -2.7432     0.0323 H       
  55 H55           -2.6327    -3.6061    -1.2145 H       
  56 H56           -0.5216    -2.3438    -1.2434 H       
  57 H57            3.0607    -2.3112    -1.2691 H       
  58 H58            3.1057    -4.7707    -1.2762 H       
  59 H59           -0.3641    -4.8590     1.2044 H       
  60 H60           -0.4197    -2.3999     1.2318 H       
  61 H61            0.3916    -6.8528     0.0526 H       
  62 H62            1.8392    -6.8160    -0.9825 H       
  63 H63            1.0316    -8.6561     1.3386 H       
  64 H64            2.5104    -8.9051     0.3800 H       
  65 H65            2.3986    -8.3427     3.3785 H       
  66 H66            2.7431    -9.9190     2.6253 H       
  67 H67            4.7506    -8.9826     1.5389 H       
  68 H68            4.0121    -6.4196     3.0260 H       
  69 H69            5.4664    -6.6731     2.0303 H       
  70 H70            4.0456    -7.0753     0.0446 H       
  71 H71            3.6943    -5.4825     0.7568 H       
  72 H72            5.5953    -8.7430     6.6940 H       
  73 H73            7.7823   -10.6232     6.4938 H       
  74 H74            9.0011   -11.9594     4.8257 H       
  75 H75            8.3620   -11.8605     2.4529 H       
  76 H76            6.4994   -10.4245     1.7303 H       
  77 H77            6.5653     6.0863     0.8637 H       
  78 H78            6.5492     6.0958    -0.9162 H       
  79 H79            5.0622     8.0800    -0.8921 H       
  80 H80            5.0783     8.0704     0.8878 H       
  81 H81            7.4897     8.3449     0.7588 H       
  82 H82            6.0407    10.3130    -0.8890 H       
  83 H83            6.0568    10.3035     0.8909 H       
  84 H84            7.7377    11.8907    -0.0058 H       
  85 H85            8.5236    10.5552     0.8699 H       
  86 H86            8.5075    10.5647    -0.9100 H       
@<TRIPOS>BOND
   1    1    2 ar
   2    1   10 ar
   3    2    3 ar
   4    2   14 1
   5    3    4 ar
   6    3   20 1
   7    4    5 ar
   8    5    6 ar
   9    5   10 ar
  10    6    7 ar
  11    6   48 1
  12    7    8 ar
  13    7   11 1
  14    8    9 ar
  15    8   49 1
  16    9   10 ar
  17    9   50 1
  18   11   12 2
  19   11   13 am
  20   13   43 1
  21   13   51 1
  22   14   15 ar
  23   14   19 ar
  24   15   16 ar
  25   15   52 1
  26   16   17 ar
  27   16   53 1
  28   17   18 ar
  29   17   54 1
  30   18   19 ar
  31   18   55 1
  32   19   56 1
  33   20   21 ar
  34   20   25 ar
  35   21   22 ar
  36   21   57 1
  37   22   23 ar
  38   22   58 1
  39   23   24 ar
  40   23   26 1
  41   24   25 ar
  42   24   59 1
  43   25   60 1
  44   26   27 1
  45   26   61 1
  46   26   62 1
  47   27   28 1
  48   27   32 1
  49   28   29 1
  50   28   63 1
  51   28   64 1
  52   29   30 1
  53   29   65 1
  54   29   66 1
  55   30   31 1
  56   30   34 1
  57   30   67 1
  58   31   32 1
  59   31   68 1
  60   31   69 1
  61   32   70 1
  62   32   71 1
  63   33   34 am
  64   33   37 am
  65   33   42 2
  66   34   35 1
  67   35   36 ar
  68   35   41 ar
  69   36   37 1
  70   36   38 ar
  71   37   72 1
  72   38   39 ar
  73   38   73 1
  74   39   40 ar
  75   39   74 1
  76   40   41 ar
  77   40   75 1
  78   41   76 1
  79   43   44 1
  80   43   77 1
  81   43   78 1
  82   44   45 1
  83   44   79 1
  84   44   80 1
  85   45   46 1
  86   45   81 1
  87   46   47 1
  88   46   82 1
  89   46   83 1
  90   47   84 1
  91   47   85 1
  92   47   86 1

#	End of record

