#	Name: ASD01208433
#	Creating user name:	WinNT
#	Creation time:	15. 06. 2019 19:09

#	Modifying user name:	WinNT
#	Modification time:	15. 06. 2019 19:09

#	Program:	/corina/corina34_cracker 3.40 0067  02.08.2006

@<TRIPOS>MOLECULE
ASD01208433
  40   41    0    0    0
SMALL
NO_CHARGES


@<TRIPOS>ATOM
   1 S1            -0.0218     1.7570     0.0117 S.3     
   2 C2             0.0021    -0.0041     0.0020 C.2     
   3 N3             1.2431    -0.4229    -0.0121 N.2     
   4 C4             2.1800     0.4826    -0.0162 C.2     
   5 C5             1.7405     1.7794    -0.0050 C.2     
   6 C6             2.5847     2.9729    -0.0074 C.2     
   7 O7             3.7961     2.8611    -0.0199 O.2     
   8 O8             2.0203     4.1985     0.0043 O.3     
   9 N9            -1.1864    -2.2498     0.0018 N.am    
  10 C10           -1.1845    -0.8682     0.0091 C.2     
  11 C11           -2.4848    -0.4509     0.0248 C.2     
  12 C12           -3.2946    -1.5965     0.0269 C.2     
  13 C13           -2.4848    -2.6790     0.0128 C.2     
  14 C14           -0.0947    -3.0399    -0.0187 C.2     
  15 O15            0.4127    -3.4015     1.0235 O.2     
  16 O16            0.4329    -3.4281    -1.1942 O.3     
  17 C17            1.6085    -4.2786    -1.1402 C.3     
  18 C18            1.2692    -5.5710    -0.3951 C.3     
  19 C19            2.0611    -4.6138    -2.5628 C.3     
  20 C20            2.7340    -3.5470    -0.4060 C.3     
  21 Br21          -3.0519    -4.4829     0.0084 Br      
  22 C22            2.9055     5.3204     0.0012 C.3     
  23 C23            2.0890     6.6142     0.0157 C.3     
  24 H24            3.2296     0.2282    -0.0272 H       
  25 H25           -2.8270     0.5734     0.0338 H       
  26 H26           -4.3745    -1.6111     0.0376 H       
  27 H27            0.4674    -6.0922    -0.9181 H       
  28 H28            2.1518    -6.2095    -0.3546 H       
  29 H29            0.9468    -5.3322     0.6184 H       
  30 H30            2.3029    -3.6930    -3.0936 H       
  31 H31            2.9437    -5.2522    -2.5223 H       
  32 H32            1.2594    -5.1350    -3.0858 H       
  33 H33            2.4115    -3.3082     0.6074 H       
  34 H34            3.6165    -4.1854    -0.3655 H       
  35 H35            2.9757    -2.6262    -0.9369 H       
  36 H36            3.5427     5.2829     0.8847 H       
  37 H37            3.5251     5.2918    -0.8951 H       
  38 H38            1.4518     6.6517    -0.8678 H       
  39 H39            1.4694     6.6428     0.9120 H       
  40 H40            2.7642     7.4699     0.0133 H       
@<TRIPOS>BOND
   1    1    2 1
   2    1    5 1
   3    2    3 2
   4    2   10 1
   5    3    4 1
   6    4    5 2
   7    4   24 1
   8    5    6 1
   9    6    7 2
  10    6    8 1
  11    8   22 1
  12    9   10 1
  13    9   13 1
  14    9   14 am
  15   10   11 2
  16   11   12 1
  17   11   25 1
  18   12   13 2
  19   12   26 1
  20   13   21 1
  21   14   15 2
  22   14   16 1
  23   16   17 1
  24   17   18 1
  25   17   20 1
  26   17   19 1
  27   18   27 1
  28   18   28 1
  29   18   29 1
  30   19   30 1
  31   19   31 1
  32   19   32 1
  33   20   33 1
  34   20   34 1
  35   20   35 1
  36   22   23 1
  37   22   36 1
  38   22   37 1
  39   23   38 1
  40   23   39 1
  41   23   40 1

#	End of record

