#	Name: ASD01880085
#	Creating user name:	WinNT
#	Creation time:	15. 06. 2019 19:40

#	Modifying user name:	WinNT
#	Modification time:	15. 06. 2019 19:40

#	Program:	/corina/corina34_cracker 3.40 0067  02.08.2006

@<TRIPOS>MOLECULE
ASD01880085
  46   48    0    0    0
SMALL
NO_CHARGES


@<TRIPOS>ATOM
   1 C1            -0.1344     1.2560    -1.4367 C.ar    
   2 C2            -0.0665    -0.1150    -1.5948 C.ar    
   3 N3             1.0475    -0.7701    -1.3315 N.ar    
   4 C4             2.1330    -0.1510    -0.9109 C.ar    
   5 C5             2.1401     1.2194    -0.7298 C.ar    
   6 C6             0.9874     1.9419    -0.9959 C.ar    
   7 C7             3.3850     1.9189    -0.2483 C.3     
   8 N8             4.1984     2.3163    -1.4001 N.am    
   9 C9             3.9373     3.5208    -2.0572 C.ar    
  10 S10            5.4276     1.3374    -1.9230 S.o2    
  11 C11            4.6471     0.2418    -3.1399 C.3     
  12 O12            6.3353     2.2252    -2.5611 O.2     
  13 O13            5.8093     0.6060    -0.7660 O.2     
  14 C14            3.3144     4.5605    -1.3810 C.ar    
  15 C15            3.0568     5.7543    -2.0367 C.ar    
  16 C16            3.4220     5.9073    -3.3667 C.ar    
  17 C17            4.0423     4.8709    -4.0387 C.ar    
  18 C18            4.3058     3.6818    -3.3875 C.ar    
  19 O19            2.4467     6.7741    -1.3775 O.3     
  20 C20            2.0995     7.9277    -2.1461 C.3     
  21 C21            0.9618     8.7589    -1.5300 C.3     
  22 C22            1.7503    10.0087    -1.9557 C.3     
  23 C23            3.0152     9.1365    -1.8907 C.3     
  24 C24            5.7244    -0.5778    -3.8532 C.3     
  25 F25            6.4236    -1.3453    -2.9155 F       
  26 F26            5.1225    -1.4228    -4.7917 F       
  27 F27            6.6122     0.2853    -4.5044 F       
  28 H28           -1.0483     1.7874    -1.6578 H       
  29 H29           -0.9358    -0.6565    -1.9376 H       
  30 H30            3.0268    -0.7212    -0.7051 H       
  31 H31            0.9636     3.0135    -0.8635 H       
  32 H32            3.1063     2.8047     0.3226 H       
  33 H33            3.9590     1.2435     0.3862 H       
  34 H34            3.9554    -0.4307    -2.6325 H       
  35 H35            4.1023     0.8398    -3.8705 H       
  36 H36            3.0305     4.4395    -0.3460 H       
  37 H37            3.2210     6.8374    -3.8775 H       
  38 H38            4.3250     4.9926    -5.0739 H       
  39 H39            4.7909     2.8737    -3.9147 H       
  40 H40            1.9541     7.7041    -3.2030 H       
  41 H41            0.0092     8.6464    -2.0476 H       
  42 H42            0.8737     8.6452    -0.4496 H       
  43 H43            1.5101    10.3552    -2.9608 H       
  44 H44            1.7332    10.8088    -1.2156 H       
  45 H45            3.4884     9.1260    -0.9088 H       
  46 H46            3.7202     9.3288    -2.6994 H       
@<TRIPOS>BOND
   1    1    2 ar
   2    1    6 ar
   3    1   28 1
   4    2    3 ar
   5    2   29 1
   6    3    4 ar
   7    4    5 ar
   8    4   30 1
   9    5    6 ar
  10    5    7 1
  11    6   31 1
  12    7    8 1
  13    7   32 1
  14    7   33 1
  15    8    9 1
  16    8   10 am
  17    9   14 ar
  18    9   18 ar
  19   10   11 1
  20   10   12 2
  21   10   13 2
  22   11   24 1
  23   11   34 1
  24   11   35 1
  25   14   15 ar
  26   14   36 1
  27   15   16 ar
  28   15   19 1
  29   16   17 ar
  30   16   37 1
  31   17   18 ar
  32   17   38 1
  33   18   39 1
  34   19   20 1
  35   20   21 1
  36   20   23 1
  37   20   40 1
  38   21   22 1
  39   21   41 1
  40   21   42 1
  41   22   23 1
  42   22   43 1
  43   22   44 1
  44   23   45 1
  45   23   46 1
  46   24   25 1
  47   24   26 1
  48   24   27 1

#	End of record

