#	Name: ASD06390006
#	Creating user name:	WinNT
#	Creation time:	15. 06. 2019 21:06

#	Modifying user name:	WinNT
#	Modification time:	15. 06. 2019 21:06

#	Program:	/corina/corina34_cracker 3.40 0067  02.08.2006

@<TRIPOS>MOLECULE
ASD06390006
  49   50    0    0    0
SMALL
NO_CHARGES


@<TRIPOS>ATOM
   1 C1            -0.0187     1.5258     0.0104 C.3     
   2 C2             0.0021    -0.0041     0.0020 C.3     
   3 S3            -1.6997    -0.6320     0.0149 S.o2    
   4 O4            -2.3254    -0.3511     1.2594 O.2     
   5 O5            -2.3491    -0.3378    -1.2144 O.2     
   6 N6            -1.5324    -2.2794     0.0044 N.am    
   7 C7            -0.9140    -2.9602     1.1448 C.3     
   8 C8            -1.5919    -4.3155     1.3583 C.3     
   9 C9            -0.9662    -5.0092     2.5725 C.3     
  10 N10            0.4878    -5.0860     2.3759 N.am    
  11 C11            1.2261    -3.8521     2.0744 C.3     
  12 C12            0.5758    -3.1713     0.8658 C.3     
  13 C13            1.1322    -6.2660     2.4710 C.2     
  14 O14            0.5115    -7.2775     2.7208 O.2     
  15 C15            2.6240    -6.3284     2.2667 C.3     
  16 N16            3.0806    -7.7118     2.4211 N.pl3   
  17 C17            4.4384    -8.0214     2.2753 C.ar    
  18 C18            5.3522    -7.0196     1.9850 C.ar    
  19 C19            6.6931    -7.3274     1.8419 C.ar    
  20 I20            8.0723    -5.8126     1.4032 I       
  21 C21            7.1255    -8.6335     1.9883 C.ar    
  22 C22            6.2182    -9.6378     2.2782 C.ar    
  23 C23            4.8752    -9.3358     2.4275 C.ar    
  24 O24            3.9826   -10.3218     2.7128 O.3     
  25 C25            4.5003   -11.6472     2.8449 C.3     
  26 Cl26           8.8097    -9.0137     1.8076 Cl      
  27 H27            1.0039     1.9031     0.0027 H       
  28 H28           -0.5459     1.8868    -0.8726 H       
  29 H29           -0.5289     1.8773     0.9072 H       
  30 H30            0.5123    -0.3556    -0.8948 H       
  31 H31            0.5293    -0.3651     0.8851 H       
  32 H32           -1.8439    -2.7938    -0.7567 H       
  33 H33           -1.0327    -2.3498     2.0400 H       
  34 H34           -2.6572    -4.1659     1.5338 H       
  35 H35           -1.4521    -4.9357     0.4729 H       
  36 H36           -1.1834    -4.4353     3.4733 H       
  37 H37           -1.3754    -6.0148     2.6698 H       
  38 H38            1.1877    -3.1838     2.9346 H       
  39 H39            2.2634    -4.0941     1.8431 H       
  40 H40            0.6952    -3.8023    -0.0149 H       
  41 H41            1.0534    -2.2073     0.6907 H       
  42 H42            2.8687    -5.9746     1.2652 H       
  43 H43            3.1186    -5.6980     3.0057 H       
  44 H44            2.4423    -8.4134     2.6242 H       
  45 H45            5.0170    -5.9994     1.8702 H       
  46 H46            6.5584   -10.6565     2.3916 H       
  47 H47            3.6854   -12.3345     3.0720 H       
  48 H48            4.9777   -11.9454     1.9115 H       
  49 H49            5.2326   -11.6725     3.6518 H       
@<TRIPOS>BOND
   1    1    2 1
   2    1   27 1
   3    1   28 1
   4    1   29 1
   5    2    3 1
   6    2   30 1
   7    2   31 1
   8    3    4 2
   9    3    5 2
  10    3    6 am
  11    6    7 1
  12    6   32 1
  13    7    8 1
  14    7   12 1
  15    7   33 1
  16    8    9 1
  17    8   34 1
  18    8   35 1
  19    9   10 1
  20    9   36 1
  21    9   37 1
  22   10   11 1
  23   10   13 am
  24   11   12 1
  25   11   38 1
  26   11   39 1
  27   12   40 1
  28   12   41 1
  29   13   14 2
  30   13   15 1
  31   15   16 1
  32   15   42 1
  33   15   43 1
  34   16   17 1
  35   16   44 1
  36   17   18 ar
  37   17   23 ar
  38   18   19 ar
  39   18   45 1
  40   19   20 1
  41   19   21 ar
  42   21   22 ar
  43   21   26 1
  44   22   23 ar
  45   22   46 1
  46   23   24 1
  47   24   25 1
  48   25   47 1
  49   25   48 1
  50   25   49 1

#	End of record

