#	Name: ASD01900501
#	Creating user name:	WinNT
#	Creation time:	15. 06. 2019 19:52

#	Modifying user name:	WinNT
#	Modification time:	15. 06. 2019 19:52

#	Program:	/corina/corina34_cracker 3.40 0067  02.08.2006

@<TRIPOS>MOLECULE
ASD01900501
  25   27    0    0    0
SMALL
NO_CHARGES


@<TRIPOS>ATOM
   1 C1            -0.0262     1.3896     0.1269 C.ar    
   2 C2             0.0065     0.0003    -0.0634 C.ar    
   3 C3             1.2219    -0.6690     0.0517 C.ar    
   4 C4             2.3513     0.0705     0.3506 C.ar    
   5 C5             2.2442     1.4427     0.5256 C.ar    
   6 N6             1.0868     2.0557     0.4130 N.ar    
   7 O7            -1.2508    -0.3999    -0.3365 O.3     
   8 N8            -2.1133     0.7199    -0.3273 N.2     
   9 C9            -1.4307     1.7960    -0.0523 C.2     
  10 N10           -1.9330     3.0871     0.0450 N.pl3   
  11 C11           -3.3106     3.3095    -0.0404 C.ar    
  12 C12           -4.2009     2.3267     0.3729 C.ar    
  13 C13           -5.5621     2.5494     0.2873 C.ar    
  14 C14           -6.0381     3.7512    -0.2106 C.ar    
  15 C15           -5.1528     4.7311    -0.6226 C.ar    
  16 C16           -3.7912     4.5158    -0.5333 C.ar    
  17 Cl17          -7.7485     4.0280    -0.3182 Cl      
  18 Cl18          -6.6761     1.3220     0.8033 Cl      
  19 H19            1.2810    -1.7382    -0.0885 H       
  20 H20            3.3103    -0.4168     0.4476 H       
  21 H21            3.1280     2.0178     0.7594 H       
  22 H22           -1.3280     3.8346     0.1723 H       
  23 H23           -3.8298     1.3894     0.7604 H       
  24 H24           -5.5265     5.6671    -1.0107 H       
  25 H25           -3.1008     5.2832    -0.8510 H       
@<TRIPOS>BOND
   1    1    2 ar
   2    1    6 ar
   3    1    9 1
   4    2    3 ar
   5    2    7 1
   6    3    4 ar
   7    3   19 1
   8    4    5 ar
   9    4   20 1
  10    5    6 ar
  11    5   21 1
  12    7    8 1
  13    8    9 2
  14    9   10 1
  15   10   11 1
  16   10   22 1
  17   11   12 ar
  18   11   16 ar
  19   12   13 ar
  20   12   23 1
  21   13   14 ar
  22   13   18 1
  23   14   15 ar
  24   14   17 1
  25   15   16 ar
  26   15   24 1
  27   16   25 1

#	End of record

