#	Name: ASD03331761
#	Creating user name:	WinNT
#	Creation time:	15. 06. 2019 20:39

#	Modifying user name:	WinNT
#	Modification time:	15. 06. 2019 20:39

#	Program:	/corina/corina34_cracker 3.40 0067  02.08.2006

@<TRIPOS>MOLECULE
ASD03331761
  44   47    0    0    0
SMALL
NO_CHARGES


@<TRIPOS>ATOM
   1 F1             0.0021    -0.0041     0.0020 F       
   2 C2            -0.0162     1.3468     0.0094 C.ar    
   3 C3            -1.2264     2.0211     0.0304 C.ar    
   4 C4            -1.2497     3.4006     0.0381 C.ar    
   5 C5            -0.0538     4.1157     0.0251 C.ar    
   6 C6             1.1611     3.4335     0.0045 C.ar    
   7 C7             1.1753     2.0538     0.0019 C.ar    
   8 C8            -0.0739     5.5994     0.0328 C.ar    
   9 C9            -1.2884     6.2821     0.0588 C.ar    
  10 C10           -1.3012     7.6621     0.0663 C.ar    
  11 C11           -0.1115     8.3675     0.0476 C.ar    
  12 C12           -0.1320     9.8744     0.0554 C.3     
  13 N13           -0.1129    10.3558     1.4389 N.am    
  14 S14            0.2426    11.9412     1.7591 S.o2    
  15 O15            0.1466    12.0973     3.1682 O.2     
  16 O16            1.4186    12.2455     1.0217 O.2     
  17 C17           -1.0484    12.9164     1.0614 C.2     
  18 C18           -1.0562    13.4032    -0.1896 C.2     
  19 C19           -2.3068    14.1489    -0.3512 C.ar    
  20 C20           -2.8791    14.8675    -1.4022 C.ar    
  21 C21           -4.0954    15.4666    -1.2313 C.ar    
  22 C22           -4.7664    15.3669    -0.0205 C.ar    
  23 C23           -4.2198    14.6625     1.0301 C.ar    
  24 C24           -2.9832    14.0443     0.8782 C.ar    
  25 N25           -2.1941    13.2847     1.7126 N.pl3   
  26 H26           -2.4162    13.0479     2.6266 H       
  27 C27            1.0969     7.6949     0.0223 C.ar    
  28 C28            1.1216     6.3150     0.0199 C.ar    
  29 H29           -2.1528     1.4660     0.0404 H       
  30 H30           -2.1935     3.9254     0.0537 H       
  31 H31            2.0903     3.9839    -0.0056 H       
  32 H32            2.1164     1.5242    -0.0103 H       
  33 H33           -2.2179     5.7323     0.0727 H       
  34 H34           -2.2419     8.1923     0.0864 H       
  35 H35            0.7433    10.2524    -0.4729 H       
  36 H36           -1.0362    10.2280    -0.4399 H       
  37 H37           -0.3085     9.7460     2.1674 H       
  38 H38           -0.2864    13.2706    -0.9354 H       
  39 H39           -2.3623    14.9499    -2.3469 H       
  40 H40           -4.5377    16.0225    -2.0447 H       
  41 H41           -5.7266    15.8465     0.0996 H       
  42 H42           -4.7497    14.5910     1.9684 H       
  43 H43            2.0229     8.2506     0.0078 H       
  44 H44            2.0658     5.7908     0.0042 H       
@<TRIPOS>BOND
   1    1    2 1
   2    2    7 ar
   3    2    3 ar
   4    3    4 ar
   5    3   29 1
   6    4    5 ar
   7    4   30 1
   8    5    6 ar
   9    5    8 1
  10    6    7 ar
  11    6   31 1
  12    7   32 1
  13    8   28 ar
  14    8    9 ar
  15    9   10 ar
  16    9   33 1
  17   10   11 ar
  18   10   34 1
  19   11   12 1
  20   11   27 ar
  21   12   13 1
  22   12   35 1
  23   12   36 1
  24   13   14 am
  25   13   37 1
  26   14   15 2
  27   14   16 2
  28   14   17 1
  29   17   25 1
  30   17   18 2
  31   18   19 1
  32   18   38 1
  33   19   24 ar
  34   19   20 ar
  35   20   21 ar
  36   20   39 1
  37   21   22 ar
  38   21   40 1
  39   22   23 ar
  40   22   41 1
  41   23   24 ar
  42   23   42 1
  43   24   25 1
  44   25   26 1
  45   27   28 ar
  46   27   43 1
  47   28   44 1

#	End of record

