#	Name: ASD05430442
#	Creating user name:	WinNT
#	Creation time:	15. 06. 2019 21:00

#	Modifying user name:	WinNT
#	Modification time:	15. 06. 2019 21:00

#	Program:	/corina/corina34_cracker 3.40 0067  02.08.2006

@<TRIPOS>MOLECULE
ASD05430442
  59   63    0    0    0
SMALL
NO_CHARGES


@<TRIPOS>ATOM
   1 C1            -0.0723     1.2142    -0.3265 C.ar    
   2 C2            -0.0154    -0.0175     0.3253 C.ar    
   3 C3            -1.1634    -0.5656     0.8834 C.ar    
   4 C4            -2.3636     0.1051     0.7961 C.ar    
   5 C5            -2.4283     1.3411     0.1442 C.ar    
   6 C6            -1.2716     1.8951    -0.4134 C.ar    
   7 C7            -4.8623     1.3696    -0.0445 C.2     
   8 C8            -3.7094     2.0591     0.0499 C.2     
   9 O9             1.0532     1.7476    -0.8715 O.3     
  10 C10            1.7566    -1.2322     1.5543 C.2     
  11 N11            1.2024    -0.7039     0.4170 N.pl3   
  12 C12            2.9225    -1.8006     1.1924 C.2     
  13 N13            3.0808    -1.6271    -0.1282 N.2     
  14 C14            2.0574    -0.9717    -0.6041 C.2     
  15 C15            3.8832    -2.5091     2.1121 C.3     
  16 C16           -7.2346     0.1637    -1.0924 C.2     
  17 N17           -7.3072     1.3681    -0.4944 N.am    
  18 C18           -5.8949    -0.4649    -1.3585 C.3     
  19 C19           -6.1933     2.0236     0.0311 C.2     
  20 C20           -4.9008    -0.1363    -0.2428 C.3     
  21 C21           -8.4865     2.2016    -0.2594 C.3     
  22 C22           -7.9091     3.4503     0.4387 C.3     
  23 N23           -6.4692     3.1741     0.5449 N.2     
  24 C24           -9.1385     2.5792    -1.5645 C.ar    
  25 C25          -10.2736     3.3683    -1.5667 C.ar    
  26 C26          -10.8721     3.7155    -2.7630 C.ar    
  27 C27          -10.3344     3.2729    -3.9596 C.ar    
  28 C28           -9.1975     2.4827    -3.9562 C.ar    
  29 C29           -8.5977     2.1410    -2.7590 C.ar    
  30 F30          -10.9189     3.6114    -5.1297 F       
  31 C31            0.9216     3.0121    -1.5240 C.3     
  32 C32           -9.4815     1.4825     0.6537 C.3     
  33 O33           -8.2503    -0.4142    -1.4160 O.2     
  34 O34          -10.6217     2.3172     0.8666 O.3     
  35 H35           -1.1150    -1.5200     1.3866 H       
  36 H36           -3.2546    -0.3236     1.2306 H       
  37 H37           -1.3171     2.8492    -0.9175 H       
  38 H38           -3.7250     3.1390     0.0564 H       
  39 H39            1.3402    -1.1954     2.5502 H       
  40 H40            1.9142    -0.6895    -1.6368 H       
  41 H41            3.6277    -3.5677     2.1588 H       
  42 H42            4.8989    -2.3969     1.7328 H       
  43 H43            3.8179    -2.0753     3.1099 H       
  44 H44           -6.0128    -1.5469    -1.4182 H       
  45 H45           -5.5084    -0.0951    -2.3082 H       
  46 H46           -3.9091    -0.4932    -0.5208 H       
  47 H47           -5.2178    -0.6182     0.6821 H       
  48 H48           -8.0883     4.3408    -0.1637 H       
  49 H49           -8.3436     3.5670     1.4315 H       
  50 H50          -10.6931     3.7131    -0.6331 H       
  51 H51          -11.7591     4.3317    -2.7644 H       
  52 H52           -8.7772     2.1368    -4.8891 H       
  53 H53           -7.7108     1.5246    -2.7561 H       
  54 H54            0.2112     2.9246    -2.3461 H       
  55 H55            0.5620     3.7535    -0.8104 H       
  56 H56            1.8912     3.3228    -1.9131 H       
  57 H57           -9.7962     0.5500     0.1853 H       
  58 H58           -9.0059     1.2662     1.6104 H       
  59 H59          -11.2957     1.9241     1.4378 H       
@<TRIPOS>BOND
   1    1    2 ar
   2    1    9 1
   3    1    6 ar
   4    2    3 ar
   5    2   11 1
   6    3    4 ar
   7    3   35 1
   8    4    5 ar
   9    4   36 1
  10    5    6 ar
  11    5    8 1
  12    6   37 1
  13    7    8 2
  14    7   19 1
  15    7   20 1
  16    8   38 1
  17    9   31 1
  18   10   11 1
  19   10   12 2
  20   10   39 1
  21   11   14 1
  22   12   13 1
  23   12   15 1
  24   13   14 2
  25   14   40 1
  26   15   41 1
  27   15   42 1
  28   15   43 1
  29   16   17 am
  30   16   18 1
  31   16   33 2
  32   17   21 1
  33   17   19 1
  34   18   20 1
  35   18   44 1
  36   18   45 1
  37   19   23 2
  38   20   46 1
  39   20   47 1
  40   21   22 1
  41   21   24 1
  42   21   32 1
  43   22   23 1
  44   22   48 1
  45   22   49 1
  46   24   25 ar
  47   24   29 ar
  48   25   26 ar
  49   25   50 1
  50   26   27 ar
  51   26   51 1
  52   27   28 ar
  53   27   30 1
  54   28   29 ar
  55   28   52 1
  56   29   53 1
  57   31   54 1
  58   31   55 1
  59   31   56 1
  60   32   34 1
  61   32   57 1
  62   32   58 1
  63   34   59 1

#	End of record

