#	Name: ASD02039335
#	Creating user name:	WinNT
#	Creation time:	15. 06. 2019 20:18

#	Modifying user name:	WinNT
#	Modification time:	15. 06. 2019 20:18

#	Program:	/corina/corina34_cracker 3.40 0067  02.08.2006

@<TRIPOS>MOLECULE
ASD02039335
  47   49    0    0    0
SMALL
NO_CHARGES


@<TRIPOS>ATOM
   1 C1            -0.0873     1.3457     0.4747 C.ar    
   2 C2             0.1987    -0.0116     0.5137 C.ar    
   3 C3            -0.8394    -0.9215     0.5921 C.ar    
   4 C4            -2.4080     0.7723     0.6055 C.ar    
   5 C5            -1.4122     1.7434     0.5214 C.ar    
   6 C6            -3.8321     1.1819     0.6564 C.ar    
   7 C7             1.0201     2.3642     0.3898 C.3     
   8 N8             1.4061     2.5503    -1.0112 N.am    
   9 C9             0.6529     3.4751    -1.8618 C.3     
  10 C10            2.4540     1.8706    -1.5174 C.2     
  11 C11            3.1420     0.8591    -0.6964 C.2     
  12 C12            4.1359     0.0225    -1.1129 C.2     
  13 N13            2.9065     0.5938     0.6140 N.2     
  14 C14            3.7035    -0.3602     1.0002 C.2     
  15 N15            4.4808    -0.7386    -0.0478 N.pl3   
  16 O16            2.8317     2.0922    -2.6521 O.2     
  17 C17            5.5075    -1.7834    -0.0289 C.3     
  18 C18           -4.1689     2.5325     0.7335 C.ar    
  19 N19           -2.0926    -0.5165     0.6302 N.ar    
  20 C20            1.5546     4.6418    -2.2701 C.3     
  21 C21            0.1721     2.7395    -3.1143 C.3     
  22 C22           -4.8396     0.2169     0.6214 C.ar    
  23 C23           -6.1672     0.6057     0.6688 C.ar    
  24 C24           -6.4939     1.9507     0.7507 C.ar    
  25 C25           -5.4947     2.9103     0.7802 C.ar    
  26 F26           -7.7906     2.3270     0.7968 F       
  27 F27           -7.1451    -0.3258     0.6347 F       
  28 F28           -4.5201    -1.0933     0.5411 F       
  29 H29            1.2225    -0.3540     0.4827 H       
  30 H30           -0.6201    -1.9786     0.6223 H       
  31 H31           -1.6702     2.7920     0.5015 H       
  32 H32            0.6737     3.3127     0.8003 H       
  33 H33            1.8804     2.0140     0.9602 H       
  34 H34           -0.2074     3.8562    -1.3115 H       
  35 H35            4.5650    -0.0239    -2.1028 H       
  36 H36            3.7427    -0.7808     1.9941 H       
  37 H37            5.0575    -2.7399    -0.2946 H       
  38 H38            6.2893    -1.5376    -0.7475 H       
  39 H39            5.9397    -1.8501     0.9696 H       
  40 H40           -3.3922     3.2825     0.7570 H       
  41 H41            2.3437     4.2780    -2.9283 H       
  42 H42            0.9626     5.3928    -2.7932 H       
  43 H43            2.0000     5.0856    -1.3798 H       
  44 H44           -0.3784     1.8454    -2.8217 H       
  45 H45           -0.4795     3.3945    -3.6927 H       
  46 H46            1.0319     2.4546    -3.7207 H       
  47 H47           -5.7545     3.9566     0.8445 H       
@<TRIPOS>BOND
   1    1    2 ar
   2    1    7 1
   3    1    5 ar
   4    2    3 ar
   5    2   29 1
   6    3   19 ar
   7    3   30 1
   8    4    5 ar
   9    4    6 1
  10    4   19 ar
  11    5   31 1
  12    6   18 ar
  13    6   22 ar
  14    7    8 1
  15    7   32 1
  16    7   33 1
  17    8    9 1
  18    8   10 am
  19    9   21 1
  20    9   20 1
  21    9   34 1
  22   10   11 1
  23   10   16 2
  24   11   12 2
  25   11   13 1
  26   12   15 1
  27   12   35 1
  28   13   14 2
  29   14   15 1
  30   14   36 1
  31   15   17 1
  32   17   37 1
  33   17   38 1
  34   17   39 1
  35   18   25 ar
  36   18   40 1
  37   20   41 1
  38   20   42 1
  39   20   43 1
  40   21   44 1
  41   21   45 1
  42   21   46 1
  43   22   23 ar
  44   22   28 1
  45   23   24 ar
  46   23   27 1
  47   24   25 ar
  48   24   26 1
  49   25   47 1

#	End of record

