#	Name: ASD03331322
#	Creating user name:	WinNT
#	Creation time:	15. 06. 2019 20:39

#	Modifying user name:	WinNT
#	Modification time:	15. 06. 2019 20:39

#	Program:	/corina/corina34_cracker 3.40 0067  02.08.2006

@<TRIPOS>MOLECULE
ASD03331322
  54   56    0    0    0
SMALL
NO_CHARGES


@<TRIPOS>ATOM
   1 C1             0.6171     1.6562    -0.4526 C.3     
   2 C2             0.4962     0.1536    -0.4178 C.2     
   3 C3             1.5299    -0.6853    -0.6697 C.2     
   4 C4             2.9173    -0.2056    -1.0182 C.3     
   5 C5             2.8177     1.2744    -1.4140 C.3     
   6 N6             2.0469     2.0060    -0.3992 N.3     
   7 N7            -0.2861    -1.8951    -0.2149 N.2     
   8 N8             1.0758    -1.9555    -0.5494 N.am    
   9 C9            -0.6359    -0.6272    -0.1357 C.2     
  10 C10            1.8022    -3.0778    -0.7208 C.2     
  11 O11            2.9794    -3.0010    -1.0113 O.2     
  12 N12            1.2226    -4.2852    -0.5701 N.am    
  13 C13           -1.9886    -0.1146     0.1944 C.ar    
  14 C14           -3.1211    -0.8032    -0.2360 C.ar    
  15 C15           -4.3770    -0.3233     0.0736 C.ar    
  16 C16           -4.5132     0.8418     0.8110 C.ar    
  17 C17           -3.3900     1.5296     1.2410 C.ar    
  18 C18           -2.1302     1.0537     0.9407 C.ar    
  19 F19           -5.7449     1.3087     1.1112 F       
  20 C20            1.0992    -6.6403    -1.1424 C.2     
  21 C21            2.0122    -5.5051    -0.7564 C.3     
  22 C22            2.7322    -5.8509     0.5486 C.3     
  23 C23            1.7093    -5.9649     1.6807 C.3     
  24 O24           -0.0570    -6.6399    -0.7763 O.2     
  25 N25            1.5677    -7.6559    -1.8944 N.am    
  26 C26            0.7137    -8.8120    -2.1778 C.3     
  27 C27            3.4663    -7.1836     0.3883 C.3     
  28 C28            3.7409    -4.7498     0.8817 C.3     
  29 H29            0.1794     2.0389    -1.3746 H       
  30 H30            0.1013     2.0864     0.4059 H       
  31 H31            3.5728    -0.3131    -0.1541 H       
  32 H32            3.3091    -0.7854    -1.8539 H       
  33 H33            3.8190     1.6991    -1.4851 H       
  34 H34            2.3187     1.3591    -2.3793 H       
  35 H35            2.1793     3.0018    -0.4930 H       
  36 H36            0.2827    -4.3465    -0.3382 H       
  37 H37           -3.0158    -1.7110    -0.8115 H       
  38 H38           -5.2552    -0.8563    -0.2596 H       
  39 H39           -3.5007     2.4375     1.8152 H       
  40 H40           -1.2552     1.5880     1.2801 H       
  41 H41            2.7469    -5.3453    -1.5455 H       
  42 H42            0.9907    -6.7494     1.4434 H       
  43 H43            2.2223    -6.2113     2.6104 H       
  44 H44            1.1863    -5.0154     1.7948 H       
  45 H45            2.4703    -7.6213    -2.2480 H       
  46 H46            0.4254    -9.2891    -1.2412 H       
  47 H47           -0.1800    -8.4823    -2.7078 H       
  48 H48            1.2602    -9.5247    -2.7955 H       
  49 H49            4.2289    -7.0877    -0.3845 H       
  50 H50            3.9383    -7.4543     1.3328 H       
  51 H51            2.7548    -7.9583     0.1025 H       
  52 H52            3.2179    -3.8003     0.9958 H       
  53 H53            4.2539    -4.9961     1.8114 H       
  54 H54            4.4696    -4.6685     0.0752 H       
@<TRIPOS>BOND
   1    1    2 1
   2    1    6 1
   3    1   29 1
   4    1   30 1
   5    2    3 2
   6    2    9 1
   7    3    4 1
   8    3    8 1
   9    4    5 1
  10    4   31 1
  11    4   32 1
  12    5    6 1
  13    5   33 1
  14    5   34 1
  15    6   35 1
  16    7    8 1
  17    7    9 2
  18    8   10 am
  19    9   13 1
  20   10   11 2
  21   10   12 am
  22   12   21 1
  23   12   36 1
  24   13   14 ar
  25   13   18 ar
  26   14   15 ar
  27   14   37 1
  28   15   16 ar
  29   15   38 1
  30   16   17 ar
  31   16   19 1
  32   17   18 ar
  33   17   39 1
  34   18   40 1
  35   20   24 2
  36   20   25 am
  37   20   21 1
  38   21   22 1
  39   21   41 1
  40   22   23 1
  41   22   27 1
  42   22   28 1
  43   23   42 1
  44   23   43 1
  45   23   44 1
  46   25   26 1
  47   25   45 1
  48   26   46 1
  49   26   47 1
  50   26   48 1
  51   27   49 1
  52   27   50 1
  53   27   51 1
  54   28   52 1
  55   28   53 1
  56   28   54 1

#	End of record

