#	Name: ASD01880519
#	Creating user name:	WinNT
#	Creation time:	15. 06. 2019 19:40

#	Modifying user name:	WinNT
#	Modification time:	15. 06. 2019 19:40

#	Program:	/corina/corina34_cracker 3.40 0067  02.08.2006

@<TRIPOS>MOLECULE
ASD01880519
  53   56    0    0    0
SMALL
NO_CHARGES


@<TRIPOS>ATOM
   1 N1            -0.0158     1.3145     0.0093 N.ar    
   2 C2             0.0021    -0.0041     0.0020 C.ar    
   3 N3             1.1326    -0.6838    -0.0124 N.ar    
   4 C4             2.3029    -0.0619    -0.0203 C.ar    
   5 C5             2.3326     1.3190    -0.0131 C.ar    
   6 C6             1.1186     2.0084     0.0022 C.ar    
   7 C7             3.6431     2.0631    -0.0212 C.3     
   8 O8             4.7225     1.1267    -0.0361 O.3     
   9 C9             5.9802     1.6364    -0.0449 C.ar    
  10 C10            7.0771     0.7803    -0.0595 C.ar    
  11 C11            8.3488     1.2972    -0.0689 C.ar    
  12 C12            8.5502     2.6814    -0.0637 C.ar    
  13 C13            7.4451     3.5368    -0.0494 C.ar    
  14 C14            6.1714     3.0130    -0.0450 C.ar    
  15 C15            9.7194     0.6675    -0.0849 C.3     
  16 N16           10.6798     1.7769    -0.0884 N.am    
  17 C17           10.0010     2.9369    -0.0761 C.2     
  18 O18           10.5118     4.0402    -0.0757 O.2     
  19 Cl19          -1.5031    -0.8689     0.0123 Cl      
  20 N20            1.0962     3.3936     0.0094 N.pl3   
  21 C21           -0.1842     4.1054     0.0254 C.3     
  22 C22            0.0672     5.5913     0.0305 C.ar    
  23 C23            0.1708     6.2788    -1.1643 C.ar    
  24 C24            0.4014     7.6418    -1.1597 C.ar    
  25 C25            0.5279     8.3173     0.0397 C.ar    
  26 C26            0.4234     7.6300     1.2345 C.ar    
  27 C27            0.1885     6.2677     1.2299 C.ar    
  28 C28           14.1567     1.4617    -1.5642 C.3     
  29 C29           12.6332     1.6023    -1.5496 C.3     
  30 C30           12.1386     1.6422    -0.1023 C.3     
  31 H31            3.2225    -0.6281    -0.0317 H       
  32 H32            3.6972     2.6941    -0.9083 H       
  33 H33            3.7135     2.6845     0.8716 H       
  34 H34            6.9281    -0.2894    -0.0632 H       
  35 H35            7.5896     4.6071    -0.0450 H       
  36 H36            5.3178     3.6745    -0.0343 H       
  37 H37            9.8599     0.0530     0.8043 H       
  38 H38            9.8431     0.0621    -0.9828 H       
  39 H39            1.9282     3.8922     0.0038 H       
  40 H40           -0.7600     3.8374    -0.8604 H       
  41 H41           -0.7427     3.8284     0.9195 H       
  42 H42            0.0719     5.7511    -2.1014 H       
  43 H43            0.4831     8.1788    -2.0931 H       
  44 H44            0.7088     9.3821     0.0433 H       
  45 H45            0.5226     8.1577     2.1715 H       
  46 H46            0.1068     5.7307     2.1633 H       
  47 H47           14.6050     2.3120    -1.0503 H       
  48 H48           14.4413     0.5396    -1.0574 H       
  49 H49           14.5091     1.4333    -2.5952 H       
  50 H50           12.3486     2.5244    -2.0564 H       
  51 H51           12.1849     0.7520    -2.0635 H       
  52 H52           12.5869     2.4926     0.4116 H       
  53 H53           12.4232     0.7202     0.4045 H       
@<TRIPOS>BOND
   1    1    2 ar
   2    1    6 ar
   3    2    3 ar
   4    2   19 1
   5    3    4 ar
   6    4    5 ar
   7    4   31 1
   8    5    6 ar
   9    5    7 1
  10    6   20 1
  11    7    8 1
  12    7   32 1
  13    7   33 1
  14    8    9 1
  15    9   10 ar
  16    9   14 ar
  17   10   11 ar
  18   10   34 1
  19   11   12 ar
  20   11   15 1
  21   12   13 ar
  22   12   17 1
  23   13   14 ar
  24   13   35 1
  25   14   36 1
  26   15   16 1
  27   15   37 1
  28   15   38 1
  29   16   17 am
  30   16   30 1
  31   17   18 2
  32   20   21 1
  33   20   39 1
  34   21   22 1
  35   21   40 1
  36   21   41 1
  37   22   23 ar
  38   22   27 ar
  39   23   24 ar
  40   23   42 1
  41   24   25 ar
  42   24   43 1
  43   25   26 ar
  44   25   44 1
  45   26   27 ar
  46   26   45 1
  47   27   46 1
  48   28   29 1
  49   28   47 1
  50   28   48 1
  51   28   49 1
  52   29   30 1
  53   29   50 1
  54   29   51 1
  55   30   52 1
  56   30   53 1

#	End of record

