#	Name: ASD08150126
#	Creating user name:	WinNT
#	Creation time:	15. 06. 2019 21:15

#	Modifying user name:	WinNT
#	Modification time:	15. 06. 2019 21:15

#	Program:	/corina/corina34_cracker 3.40 0067  02.08.2006

@<TRIPOS>MOLECULE
ASD08150126
  51   54    0    0    0
SMALL
NO_CHARGES


@<TRIPOS>ATOM
   1 O1            -0.0161     1.3334     0.0094 O.3     
   2 C2             0.0021    -0.0041     0.0020 C.2     
   3 N3             1.2348    -0.5293    -0.0126 N.am    
   4 C4             2.2183     0.5645    -0.0161 C.3     
   5 C5             1.3508     1.8379    -0.0010 C.3     
   6 O6            -1.0069    -0.6808     0.0084 O.2     
   7 C7             3.0931    -3.5894     0.0537 C.ar    
   8 N8             2.1556    -4.5191    -0.0404 N.ar    
   9 C9             0.8687    -4.1833    -0.1299 C.ar    
  10 C10            0.5191    -2.8335    -0.1233 C.ar    
  11 C11            1.5353    -1.8872    -0.0227 C.ar    
  12 N12            2.7968    -2.2984     0.0630 N.ar    
  13 C13           -2.0646    -7.1227    -0.4274 C.ar    
  14 N14           -2.4283    -5.8480    -0.4228 N.ar    
  15 C15           -1.5274    -4.8864    -0.3298 C.ar    
  16 C16           -0.1757    -5.2298    -0.2355 C.ar    
  17 C17            0.1662    -6.5856    -0.2439 C.ar    
  18 N18           -0.7931    -7.4881    -0.3398 N.ar    
  19 N19            4.4183    -3.9768     0.1507 N.3     
  20 C20            4.5419    -5.4416     0.1295 C.3     
  21 C21            6.0235    -5.8241     0.1786 C.3     
  22 O22            6.6214    -5.2471     1.3426 O.3     
  23 C23            6.5199    -3.8215     1.3954 C.3     
  24 C24            5.0433    -3.4187     1.3587 C.3     
  25 N25           -3.0389    -8.0986    -0.5205 N.pl3   
  26 C26            3.0990     0.4993     1.2333 C.3     
  27 F27            2.3257    -6.4811    -1.2235 F       
  28 F28            2.1531    -6.5386     1.0538 F       
  29 C29            1.6087    -7.0107    -0.1453 C.3     
  30 C30            1.6935    -8.5381    -0.1774 C.3     
  31 H31            2.8286     0.5277    -0.9184 H       
  32 H32            1.5314     2.4339    -0.8956 H       
  33 H33            1.5485     2.4243     0.8964 H       
  34 H34           -0.5148    -2.5295    -0.1947 H       
  35 H35           -1.8308    -3.8499    -0.3269 H       
  36 H36            4.0285    -5.8627     0.9939 H       
  37 H37            4.0955    -5.8313    -0.7853 H       
  38 H38            6.1181    -6.9092     0.2207 H       
  39 H39            6.5260    -5.4486    -0.7128 H       
  40 H40            6.9734    -3.4582     2.3176 H       
  41 H41            7.0368    -3.3878     0.5394 H       
  42 H42            4.9628    -2.3318     1.3412 H       
  43 H43            4.5379    -3.8075     2.2428 H       
  44 H44           -3.9736    -7.8466    -0.5812 H       
  45 H45           -2.7879    -9.0356    -0.5250 H       
  46 H46            3.6293    -0.4528     1.2547 H       
  47 H47            3.8201     1.3164     1.2125 H       
  48 H48            2.4751     0.5878     2.1227 H       
  49 H49            1.2693    -8.9059    -1.1117 H       
  50 H50            2.7368    -8.8456    -0.1061 H       
  51 H51            1.1348    -8.9507     0.6626 H       
@<TRIPOS>BOND
   1    1    2 1
   2    1    5 1
   3    2    3 am
   4    2    6 2
   5    3    4 1
   6    3   11 1
   7    4    5 1
   8    4   26 1
   9    4   31 1
  10    5   32 1
  11    5   33 1
  12    7    8 ar
  13    7   12 ar
  14    7   19 1
  15    8    9 ar
  16    9   10 ar
  17    9   16 1
  18   10   11 ar
  19   10   34 1
  20   11   12 ar
  21   13   14 ar
  22   13   18 ar
  23   13   25 1
  24   14   15 ar
  25   15   16 ar
  26   15   35 1
  27   16   17 ar
  28   17   18 ar
  29   17   29 1
  30   19   20 1
  31   19   24 1
  32   20   21 1
  33   20   36 1
  34   20   37 1
  35   21   22 1
  36   21   38 1
  37   21   39 1
  38   22   23 1
  39   23   24 1
  40   23   40 1
  41   23   41 1
  42   24   42 1
  43   24   43 1
  44   25   44 1
  45   25   45 1
  46   26   46 1
  47   26   47 1
  48   26   48 1
  49   27   29 1
  50   28   29 1
  51   29   30 1
  52   30   49 1
  53   30   50 1
  54   30   51 1

#	End of record

