#	Name: ASD01884572
#	Creating user name:	WinNT
#	Creation time:	15. 06. 2019 19:48

#	Modifying user name:	WinNT
#	Modification time:	15. 06. 2019 19:48

#	Program:	/corina/corina34_cracker 3.40 0067  02.08.2006

@<TRIPOS>MOLECULE
ASD01884572
  60   64    0    0    0
SMALL
NO_CHARGES


@<TRIPOS>ATOM
   1 C1            -0.0168     1.3884     0.0097 C.2     
   2 C2             0.0021    -0.0041     0.0020 C.2     
   3 C3            -1.2095    -0.6965     0.0104 C.2     
   4 C4            -2.3831    -0.0157     0.0252 C.2     
   5 N5            -2.4093     1.3392     0.0327 N.am    
   6 C6            -1.2693     2.0558     0.0312 C.2     
   7 O7            -1.3129     3.2741     0.0383 O.2     
   8 C8            -3.6983     2.0352     0.0483 C.3     
   9 C9            -4.1273     2.2662     1.4744 C.ar    
  10 C10           -3.7549     3.4259     2.1284 C.ar    
  11 C11           -4.1480     3.6390     3.4360 C.ar    
  12 C12           -4.9152     2.6906     4.0911 C.ar    
  13 C13           -5.2876     1.5296     3.4350 C.ar    
  14 C14           -4.8977     1.3210     2.1257 C.ar    
  15 F15           -5.2998     2.8977     5.3695 F       
  16 C16            1.2059     2.1337     0.0020 C.1     
  17 N17            2.1759     2.7249    -0.0041 N.1     
  18 C18            1.3105    -0.7515    -0.0155 C.3     
  19 N19            1.6901    -1.1066     1.3585 N.3     
  20 C20            2.8290    -2.0352     1.3670 C.3     
  21 C21            3.2431    -2.3172     2.8131 C.3     
  22 N22            2.1012    -2.8822     3.5456 N.3     
  23 C23            0.9623    -1.9536     3.5371 C.3     
  24 C24            0.5482    -1.6716     2.0910 C.3     
  25 C25            2.4808    -3.2373     4.9196 C.3     
  26 C26            1.2516    -3.7132     5.7227 C.3     
  27 C27            1.7732    -4.8001     6.6382 C.ar    
  28 C28            3.0011    -5.2438     6.1843 C.ar    
  29 C29            3.3886    -4.4854     4.9329 C.3     
  30 C30            1.2167    -5.3561     7.7784 C.ar    
  31 C31            1.8839    -6.3519     8.4634 C.ar    
  32 C32            3.1141    -6.7972     8.0095 C.ar    
  33 C33            3.6703    -6.2429     6.8708 C.ar    
  34 F34            3.7696    -7.7716     8.6775 F       
  35 H35           -1.2130    -1.7765     0.0046 H       
  36 H36           -3.3137    -0.5638     0.0308 H       
  37 H37           -3.5999     2.9937    -0.4613 H       
  38 H38           -4.4456     1.4275    -0.4619 H       
  39 H39           -3.1562     4.1653     1.6174 H       
  40 H40           -3.8567     4.5449     3.9469 H       
  41 H41           -5.8860     0.7891     3.9450 H       
  42 H42           -5.1880     0.4154     1.6137 H       
  43 H43            1.2023    -1.6595    -0.6087 H       
  44 H44            2.0835    -0.1207    -0.4544 H       
  45 H45            2.5411    -2.9683     0.8826 H       
  46 H46            3.6659    -1.5892     0.8295 H       
  47 H47            4.0692    -3.0283     2.8228 H       
  48 H48            3.5569    -1.3883     3.2893 H       
  49 H49            0.1254    -2.3996     4.0746 H       
  50 H50            1.2502    -1.0205     4.0215 H       
  51 H51           -0.2779    -0.9605     2.0813 H       
  52 H52            0.2344    -2.6005     1.6148 H       
  53 H53            2.9657    -2.3964     5.4154 H       
  54 H54            0.8407    -2.8906     6.3081 H       
  55 H55            0.4937    -4.1159     5.0509 H       
  56 H56            3.2053    -5.0959     4.0486 H       
  57 H57            4.4368    -4.1902     4.9789 H       
  58 H58            0.2575    -5.0089     8.1330 H       
  59 H59            1.4468    -6.7833     9.3518 H       
  60 H60            4.6297    -6.5899     6.5165 H       
@<TRIPOS>BOND
   1    1    2 2
   2    1   16 1
   3    1    6 1
   4    2    3 1
   5    2   18 1
   6    3    4 2
   7    3   35 1
   8    4    5 1
   9    4   36 1
  10    5    8 1
  11    5    6 am
  12    6    7 2
  13    8    9 1
  14    8   37 1
  15    8   38 1
  16    9   10 ar
  17    9   14 ar
  18   10   11 ar
  19   10   39 1
  20   11   12 ar
  21   11   40 1
  22   12   13 ar
  23   12   15 1
  24   13   14 ar
  25   13   41 1
  26   14   42 1
  27   16   17 3
  28   18   19 1
  29   18   43 1
  30   18   44 1
  31   19   20 1
  32   19   24 1
  33   20   21 1
  34   20   45 1
  35   20   46 1
  36   21   22 1
  37   21   47 1
  38   21   48 1
  39   22   23 1
  40   22   25 1
  41   23   24 1
  42   23   49 1
  43   23   50 1
  44   24   51 1
  45   24   52 1
  46   25   26 1
  47   25   29 1
  48   25   53 1
  49   26   27 1
  50   26   54 1
  51   26   55 1
  52   27   28 ar
  53   27   30 ar
  54   28   29 1
  55   28   33 ar
  56   29   56 1
  57   29   57 1
  58   30   31 ar
  59   30   58 1
  60   31   32 ar
  61   31   59 1
  62   32   33 ar
  63   32   34 1
  64   33   60 1

#	End of record

