#	Name: ASD01880463
#	Creating user name:	WinNT
#	Creation time:	15. 06. 2019 19:40

#	Modifying user name:	WinNT
#	Modification time:	15. 06. 2019 19:40

#	Program:	/corina/corina34_cracker 3.40 0067  02.08.2006

@<TRIPOS>MOLECULE
ASD01880463
  29   30    0    0    0
SMALL
NO_CHARGES


@<TRIPOS>ATOM
   1 O1            -1.0759     1.7739    -0.0208 O.2     
   2 C2            -0.0123     1.1897    -0.0270 C.2     
   3 C3             1.2405     1.9491    -0.0164 C.2     
   4 C4             1.2450     3.3372    -0.1104 C.2     
   5 C5             2.4650     4.0380    -0.1173 C.2     
   6 C6             3.6394     3.4344    -0.3018 C.2     
   7 C7             3.7340     1.9509    -0.5513 C.3     
   8 C8             2.5450     1.2727     0.1006 C.2     
   9 N9             2.6719     0.1321     0.7332 N.2     
  10 N10            1.6691    -0.3647     1.3748 N.2     
  11 C11            1.7958    -1.5029     2.0060 C.2     
  12 C12            0.6527    -2.0692     2.7374 C.ar    
  13 C13            0.7843    -3.2866     3.4139 C.ar    
  14 C14           -0.2915    -3.8119     4.0982 C.ar    
  15 C15           -1.5001    -3.1386     4.1177 C.ar    
  16 C16           -1.6400    -1.9314     3.4501 C.ar    
  17 C17           -0.5703    -1.3903     2.7650 C.ar    
  18 F18           -2.8240    -1.2810     3.4741 F       
  19 F19            3.7229     1.7052    -1.9285 F       
  20 H20            0.0108     0.1100    -0.0359 H       
  21 H21            0.3120     3.8768    -0.1784 H       
  22 H22            2.4495     5.1074     0.0324 H       
  23 H23            4.5447     4.0227    -0.2721 H       
  24 H24            4.6561     1.5652    -0.1164 H       
  25 H25            2.7399    -2.0270     1.9902 H       
  26 H26            1.7265    -3.8143     3.3999 H       
  27 H27           -0.1905    -4.7519     4.6204 H       
  28 H28           -2.3388    -3.5557     4.6553 H       
  29 H29           -0.6796    -0.4498     2.2454 H       
@<TRIPOS>BOND
   1    1    2 2
   2    2    3 1
   3    2   20 1
   4    3    4 2
   5    3    8 1
   6    4    5 1
   7    4   21 1
   8    5    6 2
   9    5   22 1
  10    6    7 1
  11    6   23 1
  12    7    8 1
  13    7   19 1
  14    7   24 1
  15    8    9 2
  16    9   10 1
  17   10   11 2
  18   11   12 1
  19   11   25 1
  20   12   13 ar
  21   12   17 ar
  22   13   14 ar
  23   13   26 1
  24   14   15 ar
  25   14   27 1
  26   15   16 ar
  27   15   28 1
  28   16   17 ar
  29   16   18 1
  30   17   29 1

#	End of record

