#	Name: ASD01885638
#	Creating user name:	WinNT
#	Creation time:	15. 06. 2019 19:49

#	Modifying user name:	WinNT
#	Modification time:	15. 06. 2019 19:49

#	Program:	/corina/corina34_cracker 3.40 0067  02.08.2006

@<TRIPOS>MOLECULE
ASD01885638
  38   40    0    0    0
SMALL
NO_CHARGES


@<TRIPOS>ATOM
   1 C1            -0.0172     1.4135     0.0098 C.ar    
   2 C2             0.0021    -0.0041     0.0020 C.ar    
   3 C3            -1.2279    -0.7096     0.0099 C.ar    
   4 C4            -2.4021     0.0315     0.0251 C.ar    
   5 C5            -2.3347     1.4291     0.0320 C.ar    
   6 N6            -1.1793     2.0668     0.0299 N.ar    
   7 C7             1.2052     2.1128     0.0019 C.ar    
   8 C8             2.3774     1.4228    -0.0130 C.ar    
   9 C9             2.3912     0.0292    -0.0205 C.ar    
  10 C10            1.2285    -0.6812    -0.0128 C.ar    
  11 C11           -1.2593    -2.1895     0.0017 C.ar    
  12 C12           -2.0412    -2.8776     0.9306 C.ar    
  13 C13           -2.0680    -4.2556     0.9200 C.ar    
  14 C14           -1.3179    -4.9593    -0.0135 C.ar    
  15 C15           -0.5386    -4.2777    -0.9394 C.ar    
  16 C16           -0.5115    -2.8997    -0.9385 C.ar    
  17 C17           -3.5931     2.2133     0.0477 C.2     
  18 N18           -3.5477     3.5603     0.0546 N.am    
  19 O19           -4.6652     1.6416     0.0544 O.2     
  20 O20           -1.3463    -6.3173    -0.0207 O.3     
  21 C21            3.6820     2.1772    -0.0219 C.3     
  22 C22           -0.5513    -6.9776    -1.0076 C.3     
  23 H23           -3.3601    -0.4670     0.0311 H       
  24 H24            1.2119     3.1928     0.0072 H       
  25 H25            3.3357    -0.4944    -0.0323 H       
  26 H26            1.2522    -1.7609    -0.0180 H       
  27 H27           -2.6244    -2.3311     1.6569 H       
  28 H28           -2.6725    -4.7888     1.6388 H       
  29 H29            0.0436    -4.8281    -1.6637 H       
  30 H30            0.0947    -2.3704    -1.6587 H       
  31 H31           -2.6918     4.0167     0.0492 H       
  32 H32           -4.3709     4.0733     0.0649 H       
  33 H33            4.0065     2.3540     1.0036 H       
  34 H34            4.4370     1.5913    -0.5460 H       
  35 H35            3.5460     3.1321    -0.5296 H       
  36 H36           -0.8787    -6.6725    -2.0015 H       
  37 H37            0.4958    -6.7072    -0.8711 H       
  38 H38           -0.6646    -8.0566    -0.9030 H       
@<TRIPOS>BOND
   1    1    2 ar
   2    1    7 ar
   3    1    6 ar
   4    2    3 ar
   5    2   10 ar
   6    3    4 ar
   7    3   11 1
   8    4    5 ar
   9    4   23 1
  10    5    6 ar
  11    5   17 1
  12    7    8 ar
  13    7   24 1
  14    8    9 ar
  15    8   21 1
  16    9   10 ar
  17    9   25 1
  18   10   26 1
  19   11   12 ar
  20   11   16 ar
  21   12   13 ar
  22   12   27 1
  23   13   14 ar
  24   13   28 1
  25   14   15 ar
  26   14   20 1
  27   15   16 ar
  28   15   29 1
  29   16   30 1
  30   17   18 am
  31   17   19 2
  32   18   31 1
  33   18   32 1
  34   20   22 1
  35   21   33 1
  36   21   34 1
  37   21   35 1
  38   22   36 1
  39   22   37 1
  40   22   38 1

#	End of record

