#	Name: ASD01150568
#	Creating user name:	WinNT
#	Creation time:	15. 06. 2019 19:04

#	Modifying user name:	WinNT
#	Modification time:	15. 06. 2019 19:04

#	Program:	/corina/corina34_cracker 3.40 0067  02.08.2006

@<TRIPOS>MOLECULE
ASD01150568
  58   61    0    0    0
SMALL
NO_CHARGES


@<TRIPOS>ATOM
   1 C1             1.9143     1.4016     0.9687 C.ar    
   2 C2             1.9596     0.0213     0.9430 C.ar    
   3 C3             0.4926     0.0046    -0.9573 C.ar    
   4 C4             0.4445     1.3911    -0.9341 C.ar    
   5 C5             1.1563     2.0910     0.0298 C.ar    
   6 N6             1.1105     3.4892     0.0567 N.am    
   7 C7            -0.0780     4.1147    -0.0078 C.2     
   8 N8            -0.1589     5.4581     0.0161 N.am    
   9 C9             0.9636     6.2013     0.1061 C.2     
  10 C10            2.2667     5.5231     0.1770 C.2     
  11 N11            2.3023     4.2168     0.1563 N.2     
  12 O12            0.8987     7.4163     0.1278 O.2     
  13 C13           -1.4670     6.1139    -0.0561 C.3     
  14 O14           -1.0968     3.4557    -0.0895 O.2     
  15 C15           -2.0092     6.3079     1.3365 C.ar    
  16 O16            3.4151     6.2432     0.2677 O.3     
  17 C17            4.6386     5.5078     0.3321 C.3     
  18 C18            1.2518    -0.6785    -0.0157 C.ar    
  19 C19           -1.7236     7.4677     2.0322 C.ar    
  20 C20           -2.2191     7.6500     3.3094 C.ar    
  21 C21           -3.0049     6.6669     3.8945 C.ar    
  22 C22           -3.2911     5.5005     3.1924 C.ar    
  23 C23           -2.7963     5.3274     1.9133 C.ar    
  24 N24           -0.2233    -0.7049    -1.9279 N.am    
  25 C25            0.2667    -1.8622    -2.4149 C.2     
  26 C26           -0.5545    -2.6831    -3.3755 C.3     
  27 O27            1.3684    -2.2429    -2.0799 O.2     
  28 F28           -4.0552     4.5405     3.7580 F       
  29 N29           -3.5074     6.8483     5.1869 N.3     
  30 C30           -2.4163     7.0193     6.1572 C.3     
  31 C31           -3.0102     7.2738     7.5452 C.3     
  32 O32           -3.8788     6.1920     7.8922 O.3     
  33 C33           -4.9534     5.9974     6.9687 C.3     
  34 C34           -4.3792     5.7300     5.5749 C.3     
  35 H35            2.4650     1.9454     1.7220 H       
  36 H36            2.5496    -0.5122     1.6735 H       
  37 H37           -0.1453     1.9245    -1.6649 H       
  38 H38           -1.3610     7.0833    -0.5431 H       
  39 H39           -2.1540     5.4921    -0.6301 H       
  40 H40            4.7446     4.8993    -0.5660 H       
  41 H41            5.4764     6.2016     0.4019 H       
  42 H42            4.6282     4.8614     1.2097 H       
  43 H43            1.2893    -1.7577    -0.0331 H       
  44 H44           -1.1118     8.2326     1.5771 H       
  45 H45           -1.9948     8.5565     3.8518 H       
  46 H46           -3.0179     4.4226     1.3668 H       
  47 H47           -1.0722    -0.3638    -2.2503 H       
  48 H48           -0.3365    -2.3725    -4.3973 H       
  49 H49           -0.3069    -3.7379    -3.2557 H       
  50 H50           -1.6140    -2.5328    -3.1682 H       
  51 H51           -1.8066     6.1161     6.1822 H       
  52 H52           -1.7985     7.8682     5.8644 H       
  53 H53           -2.2061     7.3444     8.2777 H       
  54 H54           -3.5758     8.2055     7.5338 H       
  55 H55           -5.5547     5.1449     7.2844 H       
  56 H56           -5.5755     6.8920     6.9406 H       
  57 H57           -5.1943     5.6378     4.8571 H       
  58 H58           -3.8009     4.8062     5.5906 H       
@<TRIPOS>BOND
   1    1    2 ar
   2    1    5 ar
   3    1   35 1
   4    2   18 ar
   5    2   36 1
   6    3    4 ar
   7    3   24 1
   8    3   18 ar
   9    4    5 ar
  10    4   37 1
  11    5    6 1
  12    6    7 am
  13    6   11 1
  14    7    8 am
  15    7   14 2
  16    8    9 am
  17    8   13 1
  18    9   10 1
  19    9   12 2
  20   10   11 2
  21   10   16 1
  22   13   15 1
  23   13   38 1
  24   13   39 1
  25   15   19 ar
  26   15   23 ar
  27   16   17 1
  28   17   40 1
  29   17   41 1
  30   17   42 1
  31   18   43 1
  32   19   20 ar
  33   19   44 1
  34   20   21 ar
  35   20   45 1
  36   21   22 ar
  37   21   29 1
  38   22   23 ar
  39   22   28 1
  40   23   46 1
  41   24   25 am
  42   24   47 1
  43   25   26 1
  44   25   27 2
  45   26   48 1
  46   26   49 1
  47   26   50 1
  48   29   30 1
  49   29   34 1
  50   30   31 1
  51   30   51 1
  52   30   52 1
  53   31   32 1
  54   31   53 1
  55   31   54 1
  56   32   33 1
  57   33   34 1
  58   33   55 1
  59   33   56 1
  60   34   57 1
  61   34   58 1

#	End of record

