#	Name: ASD09890115
#	Creating user name:	WinNT
#	Creation time:	15. 06. 2019 21:24

#	Modifying user name:	WinNT
#	Modification time:	15. 06. 2019 21:24

#	Program:	/corina/corina34_cracker 3.40 0067  02.08.2006

@<TRIPOS>MOLECULE
ASD09890115
  51   54    0    0    0
SMALL
NO_CHARGES


@<TRIPOS>ATOM
   1 C1            -0.0179     1.4705     0.0101 C.2     
   2 C2             0.0021    -0.0041     0.0020 C.ar    
   3 C3             1.2209    -0.6884    -0.0133 C.ar    
   4 C4             1.2351    -2.0651    -0.0209 C.ar    
   5 C5             0.0397    -2.7746    -0.0133 C.ar    
   6 C6            -1.1746    -2.0979     0.0015 C.ar    
   7 C7            -1.1977    -0.7214     0.0154 C.ar    
   8 O8             1.0260     2.0922     0.0035 O.2     
   9 O9            -1.1939     2.1283     0.0193 O.3     
  10 O10            0.0581    -4.1314    -0.0208 O.3     
  11 C11           -1.2062    -4.7974    -0.0124 C.3     
  12 N12           -0.6928    -8.2778     0.6548 N.2     
  13 N13           -0.8674    -7.0587     1.0217 N.2     
  14 C14           -0.9885    -6.2886    -0.0225 C.2     
  15 N15           -0.8818    -7.0860    -1.1310 N.pl3   
  16 C16           -0.6928    -8.3548    -0.6559 C.2     
  17 C17            0.0164    -5.8483    -3.0103 C.ar    
  18 C18           -0.9523    -6.6853    -2.4734 C.ar    
  19 C19           -1.9943    -7.1216    -3.2867 C.ar    
  20 C20           -2.0207    -6.6992    -4.6060 C.ar    
  21 C21           -1.0198    -5.8653    -5.0680 C.ar    
  22 N22           -0.0460    -5.4698    -4.2712 N.ar    
  23 S23           -0.4873    -9.8152    -1.6200 S.3     
  24 C24           -0.2976   -11.0391    -0.3001 C.3     
  25 C25           -0.2231   -12.4541    -0.9000 C.3     
  26 C26            1.1484   -13.0328    -0.4950 C.3     
  27 C27            1.5379   -12.2344     0.7738 C.3     
  28 C28            1.0312   -10.8073     0.4485 C.3     
  29 C29           -1.1376     3.5792     0.0269 C.3     
  30 H30            2.1501    -0.1380    -0.0195 H       
  31 H31            2.1763    -2.5946    -0.0331 H       
  32 H32           -2.1011    -2.6529     0.0069 H       
  33 H33           -2.1414    -0.1965     0.0321 H       
  34 H34           -1.7586    -4.5170     0.8844 H       
  35 H35           -1.7756    -4.5074    -0.8954 H       
  36 H36            0.8269    -5.5001    -2.3873 H       
  37 H37           -2.7630    -7.7735    -2.8989 H       
  38 H38           -2.8139    -7.0181    -5.2659 H       
  39 H39           -1.0352    -5.5332    -6.0956 H       
  40 H40           -1.1350   -10.9717     0.3944 H       
  41 H41           -1.0238   -13.0736    -0.4960 H       
  42 H42           -0.3012   -12.4038    -1.9861 H       
  43 H43            1.0616   -14.0949    -0.2658 H       
  44 H44            1.8796   -12.8710    -1.2870 H       
  45 H45            1.0307   -12.6335     1.6522 H       
  46 H46            2.6186   -12.2376     0.9156 H       
  47 H47            1.7435   -10.2861    -0.1911 H       
  48 H48            0.8589   -10.2453     1.3664 H       
  49 H49           -0.6058     3.9175     0.9162 H       
  50 H50           -0.6143     3.9271    -0.8637 H       
  51 H51           -2.1504     3.9820     0.0339 H       
@<TRIPOS>BOND
   1    1    2 1
   2    1    8 2
   3    1    9 1
   4    2    3 ar
   5    2    7 ar
   6    3    4 ar
   7    3   30 1
   8    4    5 ar
   9    4   31 1
  10    5    6 ar
  11    5   10 1
  12    6    7 ar
  13    6   32 1
  14    7   33 1
  15    9   29 1
  16   10   11 1
  17   11   14 1
  18   11   34 1
  19   11   35 1
  20   12   13 1
  21   12   16 2
  22   13   14 2
  23   14   15 1
  24   15   16 1
  25   15   18 1
  26   16   23 1
  27   17   18 ar
  28   17   22 ar
  29   17   36 1
  30   18   19 ar
  31   19   20 ar
  32   19   37 1
  33   20   21 ar
  34   20   38 1
  35   21   22 ar
  36   21   39 1
  37   23   24 1
  38   24   25 1
  39   24   28 1
  40   24   40 1
  41   25   26 1
  42   25   41 1
  43   25   42 1
  44   26   27 1
  45   26   43 1
  46   26   44 1
  47   27   28 1
  48   27   45 1
  49   27   46 1
  50   28   47 1
  51   28   48 1
  52   29   49 1
  53   29   50 1
  54   29   51 1

#	End of record

