#	Name: ASD01812944
#	Creating user name:	WinNT
#	Creation time:	15. 06. 2019 19:29

#	Modifying user name:	WinNT
#	Modification time:	15. 06. 2019 19:29

#	Program:	/corina/corina34_cracker 3.40 0067  02.08.2006

@<TRIPOS>MOLECULE
ASD01812944
  45   48    0    0    0
SMALL
NO_CHARGES


@<TRIPOS>ATOM
   1 C1            -0.0166     1.3764     0.0096 C.ar    
   2 C2             0.0021    -0.0041     0.0020 C.ar    
   3 C3             1.2089    -0.6872    -0.0127 C.ar    
   4 C4             2.3941     0.0075    -0.0203 C.ar    
   5 C5             2.3941     1.4057    -0.0132 C.ar    
   6 C6             1.1719     2.0915     0.0021 C.ar    
   7 C7             3.8413    -0.4177    -0.0364 C.3     
   8 N8             4.6313     0.8189    -0.0378 N.am    
   9 C9             3.7915     1.8684    -0.0244 C.2     
  10 C10            6.0942     0.8968    -0.0511 C.3     
  11 C11            6.5825     0.9304    -1.4764 C.ar    
  12 O12            1.1515     3.4479     0.0091 O.3     
  13 O13            4.1370     3.0341    -0.0215 O.2     
  14 C14            6.7424     2.1425    -2.1226 C.ar    
  15 C15            7.1898     2.1765    -3.4289 C.ar    
  16 C16            7.4790     0.9921    -4.0932 C.ar    
  17 C17            7.3175    -0.2232    -3.4417 C.ar    
  18 C18            6.8752    -0.2505    -2.1335 C.ar    
  19 N19            7.9328     1.0234    -5.4192 N.pl3   
  20 N20            8.1451     2.1729    -6.1911 N.2     
  21 C21            8.2487    -0.0506    -6.1777 C.2     
  22 C22            8.6418     0.4032    -7.3904 C.2     
  23 C23            8.5731     1.8006    -7.3705 C.2     
  24 C24           -0.1314     4.0773     0.0243 C.3     
  25 C25            0.0461     5.5969     0.0302 C.3     
  26 C26           -1.2753     6.2452     0.0458 C.1     
  27 N27           -2.2951     6.7456     0.0579 N.1     
  28 H28           -0.9604     1.9015     0.0169 H       
  29 H29           -0.9272    -0.5544     0.0079 H       
  30 H30            1.2170    -1.7672    -0.0179 H       
  31 H31            4.0688    -1.0067     0.8521 H       
  32 H32            4.0515    -0.9977    -0.9350 H       
  33 H33            6.4145     1.8024     0.4641 H       
  34 H34            6.5091     0.0250     0.4546 H       
  35 H35            6.5169     3.0634    -1.6055 H       
  36 H36            7.3141     3.1234    -3.9332 H       
  37 H37            7.5413    -1.1462    -3.9560 H       
  38 H38            6.7538    -1.1954    -1.6247 H       
  39 H39            8.1970    -1.0847    -5.8707 H       
  40 H40            8.9595    -0.2054    -8.2241 H       
  41 H41            8.8254     2.4585    -8.1889 H       
  42 H42           -0.6922     3.7805    -0.8620 H       
  43 H43           -0.6756     3.7715     0.9178 H       
  44 H44            0.6070     5.8937     0.9165 H       
  45 H45            0.5903     5.9027    -0.8633 H       
@<TRIPOS>BOND
   1    1    2 ar
   2    1    6 ar
   3    1   28 1
   4    2    3 ar
   5    2   29 1
   6    3    4 ar
   7    3   30 1
   8    4    7 1
   9    4    5 ar
  10    5    6 ar
  11    5    9 1
  12    6   12 1
  13    7    8 1
  14    7   31 1
  15    7   32 1
  16    8    9 am
  17    8   10 1
  18    9   13 2
  19   10   11 1
  20   10   33 1
  21   10   34 1
  22   11   14 ar
  23   11   18 ar
  24   12   24 1
  25   14   15 ar
  26   14   35 1
  27   15   16 ar
  28   15   36 1
  29   16   17 ar
  30   16   19 1
  31   17   18 ar
  32   17   37 1
  33   18   38 1
  34   19   21 1
  35   19   20 1
  36   20   23 2
  37   21   22 2
  38   21   39 1
  39   22   23 1
  40   22   40 1
  41   23   41 1
  42   24   25 1
  43   24   42 1
  44   24   43 1
  45   25   26 1
  46   25   44 1
  47   25   45 1
  48   26   27 3

#	End of record

