#	Name: ASD03082250
#	Creating user name:	WinNT
#	Creation time:	15. 06. 2019 20:27

#	Modifying user name:	WinNT
#	Modification time:	15. 06. 2019 20:27

#	Program:	/corina/corina34_cracker 3.40 0067  02.08.2006

@<TRIPOS>MOLECULE
ASD03082250
  48   50    0    0    0
SMALL
NO_CHARGES


@<TRIPOS>ATOM
   1 N1             0.0248     1.4319    -0.1381 N.pl3   
   2 N2            -0.0171     0.0288    -0.1775 N.2     
   3 C3             1.2044    -0.3970     0.0505 C.2     
   4 N4             2.0051     0.6543     0.2296 N.2     
   5 C5             1.3086     1.7677     0.1189 C.2     
   6 N6             1.6006    -1.7349     0.0983 N.pl3   
   7 C7             2.9546    -2.0590     0.2327 C.ar    
   8 C8             3.3268    -3.2722     0.7976 C.ar    
   9 C9             4.6641    -3.5900     0.9293 C.ar    
  10 C10            5.6341    -2.7002     0.4987 C.ar    
  11 C11            5.2655    -1.4904    -0.0646 C.ar    
  12 C12            3.9288    -1.1707    -0.2037 C.ar    
  13 C13            5.0685    -4.9059     1.5426 C.3     
  14 F14            3.9231    -5.6269     1.8967 F       
  15 F15            5.8152    -5.6421     0.6165 F       
  16 F16            5.8425    -4.6702     2.6839 F       
  17 C17            3.6588     4.6990     0.2534 C.ar    
  18 C18            3.2075     3.4017     0.1218 C.ar    
  19 C19            1.8388     3.1431     0.2521 C.ar    
  20 C20            0.9851     4.2207     0.5114 C.ar    
  21 C21            1.5218     5.4865     0.6276 C.ar    
  22 N22            2.8192     5.6866     0.4980 N.ar    
  23 C23           -1.0987     2.3498    -0.3417 C.3     
  24 F24            6.9419    -3.0130     0.6290 F       
  25 C25           -1.7826     2.6068     0.9764 C.2     
  26 N26           -2.8505     3.4270     1.0329 N.am    
  27 O27           -1.3719     2.0755     1.9864 O.2     
  28 C28           -3.5153     3.6768     2.3143 C.3     
  29 C29           -4.2308     5.0282     2.2627 C.3     
  30 C30           -4.5360     2.5693     2.5837 C.3     
  31 H31            0.9369    -2.4398     0.0382 H       
  32 H32            2.5707    -3.9663     1.1339 H       
  33 H33            6.0236    -0.7978    -0.3995 H       
  34 H34            3.6417    -0.2290    -0.6476 H       
  35 H35            4.7141     4.9080     0.1590 H       
  36 H36            3.9005     2.5980    -0.0788 H       
  37 H37           -0.0781     4.0641     0.6186 H       
  38 H38            0.8709     6.3248     0.8276 H       
  39 H39           -0.7297     3.2910    -0.7491 H       
  40 H40           -1.8090     1.9057    -1.0390 H       
  41 H41           -3.1790     3.8519     0.2252 H       
  42 H42           -2.7731     3.6888     3.1124 H       
  43 H43           -4.9730     5.0161     1.4646 H       
  44 H44           -4.7254     5.2140     3.2161 H       
  45 H45           -3.5036     5.8172     2.0708 H       
  46 H46           -5.2783     2.5572     1.7856 H       
  47 H47           -4.0263     1.6065     2.6204 H       
  48 H48           -5.0306     2.7551     3.5371 H       
@<TRIPOS>BOND
   1    1    2 1
   2    1    5 1
   3    1   23 1
   4    2    3 2
   5    3    4 1
   6    3    6 1
   7    4    5 2
   8    5   19 1
   9    6    7 1
  10    6   31 1
  11    7    8 ar
  12    7   12 ar
  13    8    9 ar
  14    8   32 1
  15    9   10 ar
  16    9   13 1
  17   10   11 ar
  18   10   24 1
  19   11   12 ar
  20   11   33 1
  21   12   34 1
  22   13   14 1
  23   13   15 1
  24   13   16 1
  25   17   18 ar
  26   17   22 ar
  27   17   35 1
  28   18   19 ar
  29   18   36 1
  30   19   20 ar
  31   20   21 ar
  32   20   37 1
  33   21   22 ar
  34   21   38 1
  35   23   25 1
  36   23   39 1
  37   23   40 1
  38   25   26 am
  39   25   27 2
  40   26   28 1
  41   26   41 1
  42   28   29 1
  43   28   30 1
  44   28   42 1
  45   29   43 1
  46   29   44 1
  47   29   45 1
  48   30   46 1
  49   30   47 1
  50   30   48 1

#	End of record

