#	Name: ASD03240877
#	Creating user name:	WinNT
#	Creation time:	15. 06. 2019 20:35

#	Modifying user name:	WinNT
#	Modification time:	15. 06. 2019 20:35

#	Program:	/corina/corina34_cracker 3.40 0067  02.08.2006

@<TRIPOS>MOLECULE
ASD03240877
  74   78    0    0    0
SMALL
NO_CHARGES


@<TRIPOS>ATOM
   1 N1            -0.0178     1.4642     0.0101 N.3     
   2 C2             0.0021    -0.0041     0.0020 C.3     
   3 C3             0.7039    -0.5130     1.2631 C.3     
   4 C4             2.1331     0.0352     1.3025 C.3     
   5 C5             2.0858     1.5651     1.2611 C.3     
   6 C6             1.3439     2.0138     0.0000 C.3     
   7 C7             2.8099    -0.4136     2.5720 C.2     
   8 O8             2.2116    -1.1015     3.3649 O.2     
   9 O9             4.0773    -0.0491     2.8218 O.3     
  10 C10           -0.8045     1.9863    -1.1153 C.3     
  11 C11           -1.0092     3.4690    -0.9402 C.ar    
  12 C12           -0.0910     4.3584    -1.4693 C.ar    
  13 C13           -0.2730     5.7171    -1.3127 C.ar    
  14 C14           -1.3857     6.1934    -0.6192 C.ar    
  15 C15           -2.3079     5.2916    -0.0881 C.ar    
  16 C16           -2.1175     3.9353    -0.2560 C.ar    
  17 N17            0.4393    10.5598     0.0407 N.pl3   
  18 C18            0.2754    11.9090     0.2021 C.2     
  19 N19           -0.9402    12.4842     0.2034 N.2     
  20 C20           -2.0371    11.7882     0.0504 C.2     
  21 C21           -1.9408    10.3409    -0.1274 C.ar    
  22 C22           -3.0778     9.5430    -0.2948 C.ar    
  23 C23           -2.8945     8.1739    -0.4578 C.ar    
  24 C24           -1.5868     7.6504    -0.4471 C.ar    
  25 N25           -0.5339     8.4375    -0.2856 N.ar    
  26 C26           -0.6625     9.7435    -0.1283 C.ar    
  27 C27            1.5451    12.4517     0.3463 C.2     
  28 C28            2.4613    11.4104     0.2685 C.2     
  29 N29            1.8112    10.2850     0.0929 N.2     
  30 C30           -4.0608     7.2767    -0.6389 C.ar    
  31 C31           -5.1405     7.3466     0.2401 C.ar    
  32 C32           -6.2236     6.5093     0.0663 C.ar    
  33 C33           -6.2393     5.6020    -0.9777 C.ar    
  34 C34           -5.1705     5.5278    -1.8529 C.ar    
  35 C35           -4.0845     6.3641    -1.6923 C.ar    
  36 C36            3.9580    11.5504     0.3746 C.3     
  37 H37           -1.0204    -0.3810    -0.0218 H       
  38 H38            0.5390    -0.3552    -0.8792 H       
  39 H39            0.1597    -0.1738     2.1445 H       
  40 H40            0.7324    -1.6025     1.2493 H       
  41 H41            2.6892    -0.3354     0.4414 H       
  42 H42            1.5633     1.9370     2.1425 H       
  43 H43            3.1015     1.9603     1.2458 H       
  44 H44            1.8745     1.6533    -0.8812 H       
  45 H45            1.2960     3.1025    -0.0252 H       
  46 H46            4.4690    -0.3612     3.6490 H       
  47 H47           -0.2719     1.8007    -2.0480 H       
  48 H48           -1.7729     1.4868    -1.1444 H       
  49 H49            0.7703     3.9884    -2.0056 H       
  50 H50            0.4446     6.4104    -1.7258 H       
  51 H51           -3.1712     5.6543     0.4501 H       
  52 H52           -2.8330     3.2363     0.1512 H       
  53 H53           -3.0005    12.2763     0.0559 H       
  54 H54           -4.0669     9.9767    -0.2977 H       
  55 H55            1.7786    13.4960     0.4923 H       
  56 H56           -5.1291     8.0544     1.0558 H       
  57 H57           -7.0605     6.5623     0.7469 H       
  58 H58           -7.0891     4.9487    -1.1099 H       
  59 H59           -5.1879     4.8170    -2.6658 H       
  60 H60           -3.2527     6.3084    -2.3788 H       
  61 H61            4.2588    11.4552     1.4180 H       
  62 H62            4.4387    10.7695    -0.2147 H       
  63 H63            4.2592    12.5276    -0.0027 H       
  64 C64           11.6976    20.3400     9.5221 C.2     
  65 N65           11.7158    18.9924     9.5147 N.am    
  66 O66           12.7421    20.9622     9.5155 O.2     
  67 N67           10.5213    20.9979     9.5313 N.am    
  68 C68           10.5015    22.4628     9.5394 C.3     
  69 H69           12.5623    18.5188     9.5041 H       
  70 H70           10.8825    18.4960     9.5200 H       
  71 H71            9.6880    20.5016     9.5326 H       
  72 H72            9.4690    22.8121     9.5462 H       
  73 H73           11.0145    22.8282    10.4289 H       
  74 H74           11.0061    22.8379     8.6490 H       
@<TRIPOS>BOND
   1    1    2 1
   2    1    6 1
   3    1   10 1
   4    2    3 1
   5    2   37 1
   6    2   38 1
   7    3    4 1
   8    3   39 1
   9    3   40 1
  10    4    5 1
  11    4    7 1
  12    4   41 1
  13    5    6 1
  14    5   42 1
  15    5   43 1
  16    6   44 1
  17    6   45 1
  18    7    8 2
  19    7    9 1
  20    9   46 1
  21   10   11 1
  22   10   47 1
  23   10   48 1
  24   11   12 ar
  25   11   16 ar
  26   12   13 ar
  27   12   49 1
  28   13   14 ar
  29   13   50 1
  30   14   15 ar
  31   14   24 1
  32   15   16 ar
  33   15   51 1
  34   16   52 1
  35   17   18 1
  36   17   26 1
  37   17   29 1
  38   18   19 1
  39   18   27 2
  40   19   20 2
  41   20   21 1
  42   20   53 1
  43   21   22 ar
  44   21   26 ar
  45   22   23 ar
  46   22   54 1
  47   23   24 ar
  48   23   30 1
  49   24   25 ar
  50   25   26 ar
  51   27   28 1
  52   27   55 1
  53   28   29 2
  54   28   36 1
  55   30   31 ar
  56   30   35 ar
  57   31   32 ar
  58   31   56 1
  59   32   33 ar
  60   32   57 1
  61   33   34 ar
  62   33   58 1
  63   34   35 ar
  64   34   59 1
  65   35   60 1
  66   36   61 1
  67   36   62 1
  68   36   63 1
  69   64   65 am
  70   64   66 2
  71   64   67 am
  72   65   69 1
  73   65   70 1
  74   67   68 1
  75   67   71 1
  76   68   72 1
  77   68   73 1
  78   68   74 1

#	End of record

