#	Name: ASD01148655
#	Creating user name:	WinNT
#	Creation time:	15. 06. 2019 19:02

#	Modifying user name:	WinNT
#	Modification time:	15. 06. 2019 19:02

#	Program:	/corina/corina34_cracker 3.40 0067  02.08.2006

@<TRIPOS>MOLECULE
ASD01148655
  28   28    0    0    0
SMALL
NO_CHARGES


@<TRIPOS>ATOM
   1 C1            -0.0167     1.3776     0.0096 C.ar    
   2 C2             0.0021    -0.0041     0.0020 C.ar    
   3 N3             1.1443    -0.6632    -0.0120 N.ar    
   4 C4             2.3054    -0.0383    -0.0197 C.ar    
   5 C5             2.3651     1.3426    -0.0133 C.ar    
   6 C6             1.1850     2.0698     0.0019 C.ar    
   7 C7             3.6964     2.0488    -0.0217 C.3     
   8 S8             4.6445     1.5693     1.4486 S.o2    
   9 C9             4.4737     1.6569    -1.2799 C.3     
  10 O10            4.9338     0.1794     1.5090 O.2     
  11 N11            5.9508     2.2914     1.3965 N.am    
  12 C12            3.7378     2.1842     2.8944 C.3     
  13 C13           -1.2977    -0.7666     0.0103 C.3     
  14 F14           -1.7126    -0.9955    -1.3060 F       
  15 F15           -1.1158    -1.9913     0.6616 F       
  16 F16           -2.2716    -0.0208     0.6832 F       
  17 C17            6.8625     2.1146     2.3832 C.1     
  18 N18            7.6269     1.9663     3.2104 N.1     
  19 H19           -0.9553     1.9117     0.0170 H       
  20 H20            3.2203    -0.6121    -0.0308 H       
  21 H21            1.2010     3.1496     0.0072 H       
  22 H22            3.5359     3.1269    -0.0148 H       
  23 H23            5.4366     2.1677    -1.2860 H       
  24 H24            4.6342     0.5789    -1.2868 H       
  25 H25            3.9040     1.9451    -2.1634 H       
  26 H26            2.7876     1.6569     2.9786 H       
  27 H27            4.3292     2.0132     3.7939 H       
  28 H28            3.5518     3.2521     2.7795 H       
@<TRIPOS>BOND
   1    1    2 ar
   2    1    6 ar
   3    1   19 1
   4    2    3 ar
   5    2   13 1
   6    3    4 ar
   7    4    5 ar
   8    4   20 1
   9    5    6 ar
  10    5    7 1
  11    6   21 1
  12    7    8 1
  13    7    9 1
  14    7   22 1
  15    8   10 2
  16    8   11 2
  17    8   12 1
  18    9   23 1
  19    9   24 1
  20    9   25 1
  21   11   17 1
  22   12   26 1
  23   12   27 1
  24   12   28 1
  25   13   14 1
  26   13   15 1
  27   13   16 1
  28   17   18 3

#	End of record

