#	Name: ASD01470057
#	Creating user name:	WinNT
#	Creation time:	15. 06. 2019 19:21

#	Modifying user name:	WinNT
#	Modification time:	15. 06. 2019 19:21

#	Program:	/corina/corina34_cracker 3.40 0067  02.08.2006

@<TRIPOS>MOLECULE
ASD01470057
  23   23    0    0    0
SMALL
NO_CHARGES


@<TRIPOS>ATOM
   1 C1            -0.0173     1.4248     0.0099 C.3     
   2 O2             0.0021    -0.0041     0.0020 O.3     
   3 C3             0.6047    -0.6060    -1.0538 C.ar    
   4 C4             1.1664     0.1591    -2.0624 C.ar    
   5 C5             1.7814    -0.4516    -3.1399 C.ar    
   6 C6             1.8431    -1.8305    -3.2236 C.ar    
   7 C7             1.2875    -2.6158    -2.2254 C.ar    
   8 C8             0.6664    -2.0063    -1.1251 C.ar    
   9 C9             0.0738    -2.8290    -0.0595 C.2     
  10 O10            0.7469    -3.1631     0.8958 O.2     
  11 O11           -1.2158    -3.2124    -0.1424 O.3     
  12 O12            1.3488    -3.9684    -2.3097 O.3     
  13 C13            2.4869    -4.6040    -1.7241 C.3     
  14 Br14           2.6877    -2.6477    -4.7051 Br      
  15 H15            1.0053     1.8021     0.0021 H       
  16 H16           -0.5445     1.7859    -0.8732 H       
  17 H17           -0.5275     1.7763     0.9067 H       
  18 H18            1.1235     1.2369    -2.0073 H       
  19 H19            2.2164     0.1529    -3.9221 H       
  20 H20           -1.5607    -3.7522     0.5819 H       
  21 H21            2.5229    -4.3750    -0.6590 H       
  22 H22            2.4113    -5.6826    -1.8615 H       
  23 H23            3.3944    -4.2391    -2.2051 H       
@<TRIPOS>BOND
   1    1    2 1
   2    1   15 1
   3    1   16 1
   4    1   17 1
   5    2    3 1
   6    3    4 ar
   7    3    8 ar
   8    4    5 ar
   9    4   18 1
  10    5    6 ar
  11    5   19 1
  12    6    7 ar
  13    6   14 1
  14    7    8 ar
  15    7   12 1
  16    8    9 1
  17    9   10 2
  18    9   11 1
  19   11   20 1
  20   12   13 1
  21   13   21 1
  22   13   22 1
  23   13   23 1

#	End of record

