#	Name: ASD01820023
#	Creating user name:	WinNT
#	Creation time:	15. 06. 2019 19:36

#	Modifying user name:	WinNT
#	Modification time:	15. 06. 2019 19:36

#	Program:	/corina/corina34_cracker 3.40 0067  02.08.2006

@<TRIPOS>MOLECULE
ASD01820023
  96  101    0    0    0
SMALL
NO_CHARGES


@<TRIPOS>ATOM
   1 C1            -0.8124     3.3854    -1.6595 C.ar    
   2 C2            -0.8532     2.0814    -1.2092 C.ar    
   3 N3             0.2501     1.4584    -0.8411 N.ar    
   4 C4             1.4347     2.0485    -0.8835 C.ar    
   5 C5             1.5589     3.3536    -1.3573 C.ar    
   6 C6             0.4086     4.0387    -1.7389 C.ar    
   7 N7             2.5551     1.3633    -0.4022 N.am    
   8 C8             3.2580     1.8887     0.6800 C.ar    
   9 C9             3.8565     3.1502     0.5929 C.ar    
  10 C10            3.8222     3.9095    -0.6641 C.2     
  11 N11            2.7956     3.9730    -1.4977 N.am    
  12 C12            3.3590     1.1574     1.8564 C.ar    
  13 C13            4.0239     1.6860     2.9449 C.ar    
  14 C14            4.5912     2.9477     2.8729 C.ar    
  15 C15            4.5115     3.6807     1.7086 C.ar    
  16 C16            2.9493     0.2100    -0.9774 C.2     
  17 N17            2.2626    -0.2905    -2.0236 N.am    
  18 C18            2.7491    -1.4875    -2.7140 C.3     
  19 C19            1.7329    -1.9122    -3.7759 C.3     
  20 N20            2.2413    -3.0858    -4.4986 N.3     
  21 O21            4.8218     4.5328    -0.9646 O.2     
  22 O22            3.9244    -0.3790    -0.5525 O.2     
  23 C23            2.2879    -4.2636    -3.6229 C.3     
  24 C24            2.6817    -5.4948    -4.4422 C.3     
  25 C25            4.0517    -5.2580    -5.0837 C.3     
  26 C26            3.9891    -3.9985    -5.9521 C.3     
  27 C27            3.5574    -2.8107    -5.0891 C.3     
  28 C28            3.4740    -1.5535    -5.9570 C.3     
  29 N29            4.8148    -1.2070    -6.4471 N.3     
  30 C30            5.0508    -1.7749    -7.7812 C.3     
  31 C31            4.0960    -1.1285    -8.7868 C.3     
  32 C32            4.3490    -1.7123   -10.1782 C.3     
  33 C33            5.0138     0.2485    -6.4518 C.3     
  34 C34            6.4947     0.5601    -6.6771 C.3     
  35 C35            6.6964     2.0762    -6.7176 C.3     
  36 C36            8.1773     2.3878    -6.9429 C.3     
  37 C37            8.3790     3.9039    -6.9834 C.3     
  38 C38            9.8599     4.2155    -7.2087 C.3     
  39 N39           10.0531     5.6672    -7.2475 N.am    
  40 C40           10.3187     6.4287    -6.1708 C.2     
  41 C41           10.4459     7.8349    -6.6082 C.ar    
  42 C42           10.2358     7.8256    -8.0023 C.ar    
  43 C43            9.9938     6.4133    -8.3653 C.2     
  44 C44           10.7074     9.0303    -5.9589 C.ar    
  45 C45           10.7606    10.2099    -6.6857 C.ar    
  46 C46           10.5542    10.2009    -8.0520 C.ar    
  47 C47           10.2916     9.0119    -8.7153 C.ar    
  48 O48            9.7709     5.9972    -9.4842 O.2     
  49 O49           10.4340     6.0280    -5.0301 O.2     
  50 H50           -1.7213     3.8904    -1.9513 H       
  51 H51           -1.8000     1.5646    -1.1572 H       
  52 H52            0.4659     5.0584    -2.0900 H       
  53 H53            2.9202     4.5111    -2.2950 H       
  54 H54            2.9172     0.1739     1.9198 H       
  55 H55            4.1018     1.1131     3.8571 H       
  56 H56            5.0981     3.3589     3.7333 H       
  57 H57            4.9551     4.6641     1.6579 H       
  58 H58            1.4463     0.1419    -2.3194 H       
  59 H59            3.7040    -1.2685    -3.1919 H       
  60 H60            2.8802    -2.2946    -1.9932 H       
  61 H61            0.7878    -2.1634    -3.2945 H       
  62 H62            1.5767    -1.0929    -4.4776 H       
  63 H63            3.0232    -4.1014    -2.8348 H       
  64 H64            1.3065    -4.4233    -3.1764 H       
  65 H65            2.7314    -6.3659    -3.7890 H       
  66 H66            1.9394    -5.6657    -5.2219 H       
  67 H67            4.8013    -5.1257    -4.3035 H       
  68 H68            4.3168    -6.1148    -5.7033 H       
  69 H69            4.9729    -3.8006    -6.3777 H       
  70 H70            3.2674    -4.1459    -6.7555 H       
  71 H71            4.2868    -2.6553    -4.2941 H       
  72 H72            2.8145    -1.7401    -6.8045 H       
  73 H73            3.0794    -0.7283    -5.3643 H       
  74 H74            6.0805    -1.5813    -8.0816 H       
  75 H75            4.8763    -2.8505    -7.7542 H       
  76 H76            3.0663    -1.3286    -8.4906 H       
  77 H77            4.2652    -0.0519    -8.8082 H       
  78 H78            3.7303    -1.1912   -10.9089 H       
  79 H79            5.4003    -1.5888   -10.4384 H       
  80 H80            4.0967    -2.7727   -10.1787 H       
  81 H81            4.4230     0.6933    -7.2526 H       
  82 H82            4.6971     0.6616    -5.4942 H       
  83 H83            7.0829     0.1369    -5.8629 H       
  84 H84            6.8177     0.1252    -7.6229 H       
  85 H85            6.1081     2.4994    -7.5318 H       
  86 H86            6.3734     2.5111    -5.7718 H       
  87 H87            8.7656     1.9646    -6.1287 H       
  88 H88            8.5003     1.9529    -7.8887 H       
  89 H89            7.7907     4.3271    -7.7976 H       
  90 H90            8.0560     4.3388    -6.0376 H       
  91 H91           10.4482     3.7923    -6.3944 H       
  92 H92           10.1829     3.7806    -8.1545 H       
  93 H93           10.8688     9.0434    -4.8911 H       
  94 H94           10.9644    11.1424    -6.1803 H       
  95 H95           10.5975    11.1263    -8.6070 H       
  96 H96           10.1315     9.0108    -9.7834 H       
@<TRIPOS>BOND
   1    1    2 ar
   2    1    6 ar
   3    1   50 1
   4    2    3 ar
   5    2   51 1
   6    3    4 ar
   7    4    5 ar
   8    4    7 1
   9    5    6 ar
  10    5   11 1
  11    6   52 1
  12    7    8 1
  13    7   16 am
  14    8    9 ar
  15    8   12 ar
  16    9   10 1
  17    9   15 ar
  18   10   11 am
  19   10   21 2
  20   11   53 1
  21   12   13 ar
  22   12   54 1
  23   13   14 ar
  24   13   55 1
  25   14   15 ar
  26   14   56 1
  27   15   57 1
  28   16   17 am
  29   16   22 2
  30   17   18 1
  31   17   58 1
  32   18   19 1
  33   18   59 1
  34   18   60 1
  35   19   20 1
  36   19   61 1
  37   19   62 1
  38   20   23 1
  39   20   27 1
  40   23   24 1
  41   23   63 1
  42   23   64 1
  43   24   25 1
  44   24   65 1
  45   24   66 1
  46   25   26 1
  47   25   67 1
  48   25   68 1
  49   26   27 1
  50   26   69 1
  51   26   70 1
  52   27   28 1
  53   27   71 1
  54   28   29 1
  55   28   72 1
  56   28   73 1
  57   29   30 1
  58   29   33 1
  59   30   31 1
  60   30   74 1
  61   30   75 1
  62   31   32 1
  63   31   76 1
  64   31   77 1
  65   32   78 1
  66   32   79 1
  67   32   80 1
  68   33   34 1
  69   33   81 1
  70   33   82 1
  71   34   35 1
  72   34   83 1
  73   34   84 1
  74   35   36 1
  75   35   85 1
  76   35   86 1
  77   36   37 1
  78   36   87 1
  79   36   88 1
  80   37   38 1
  81   37   89 1
  82   37   90 1
  83   38   39 1
  84   38   91 1
  85   38   92 1
  86   39   40 am
  87   39   43 am
  88   40   41 1
  89   40   49 2
  90   41   42 ar
  91   41   44 ar
  92   42   43 1
  93   42   47 ar
  94   43   48 2
  95   44   45 ar
  96   44   93 1
  97   45   46 ar
  98   45   94 1
  99   46   47 ar
 100   46   95 1
 101   47   96 1

#	End of record

