#	Name: ASD01190060
#	Creating user name:	WinNT
#	Creation time:	15. 06. 2019 19:07

#	Modifying user name:	WinNT
#	Modification time:	15. 06. 2019 19:07

#	Program:	/corina/corina34_cracker 3.40 0067  02.08.2006

@<TRIPOS>MOLECULE
ASD01190060
  44   48    0    0    0
SMALL
NO_CHARGES


@<TRIPOS>ATOM
   1 C1            -0.0187     1.5258     0.0104 C.3     
   2 C2            -0.7741     1.9142     1.2830 C.3     
   3 C3            -0.2287    -2.2283    -0.1306 C.ar    
   4 C4            -0.8802    -0.9798    -0.1397 C.ar    
   5 C5            -2.2719    -0.9321    -0.2457 C.ar    
   6 C6            -2.9580    -2.1287    -0.3383 C.ar    
   7 C7            -2.2517    -3.3213    -0.3231 C.ar    
   8 N8            -0.9396    -3.3442    -0.2220 N.ar    
   9 N9             1.1173    -1.9775    -0.0127 N.pl3   
  10 C10            0.1721     0.0313    -0.0241 C.2     
  11 C11            1.3388    -0.6279     0.0525 C.2     
  12 F12           -0.0847     1.4311     2.4004 F       
  13 F13           -0.8704     3.3077     1.3611 F       
  14 F14           -2.0578     1.3591     1.2511 F       
  15 C15           -2.3281     2.7952    -3.3178 C.ar    
  16 C16           -1.1471     2.0647    -3.5559 C.ar    
  17 C17           -0.3742     1.6388    -2.4678 C.ar    
  18 C18           -0.8109     1.9590    -1.1961 C.ar    
  19 C19           -1.9842     2.6819    -1.0390 C.ar    
  20 N20           -2.6965     3.0730    -2.0736 N.ar    
  21 N21           -2.0550     2.5239    -5.5421 N.2     
  22 N22           -2.8720     3.0685    -4.5465 N.pl3   
  23 C23           -1.0280     1.9302    -5.0034 C.2     
  24 C24           -4.0579     3.7794    -4.7690 C.ar    
  25 C25           -4.1757     4.6066    -5.8783 C.ar    
  26 C26           -5.3467     5.3060    -6.0951 C.ar    
  27 C27           -6.4011     5.1837    -5.2088 C.ar    
  28 C28           -6.2868     4.3612    -4.1030 C.ar    
  29 C29           -5.1207     3.6543    -3.8839 C.ar    
  30 Cl30           1.0885     0.7356    -2.7096 Cl      
  31 O31            1.2572     2.1692    -0.0013 O.3     
  32 H32           -2.7967     0.0118    -0.2547 H       
  33 H33           -4.0348    -2.1342    -0.4214 H       
  34 H34           -2.7910    -4.2542    -0.3957 H       
  35 H35            1.8089    -2.6569     0.0201 H       
  36 H36            2.3088    -0.1626     0.1477 H       
  37 H37           -2.3215     2.9294    -0.0433 H       
  38 H38           -0.2344     1.4242    -5.5331 H       
  39 H39           -3.3523     4.7032    -6.5705 H       
  40 H40           -5.4388     5.9495    -6.9576 H       
  41 H41           -7.3156     5.7319    -5.3804 H       
  42 H42           -7.1119     4.2680    -3.4125 H       
  43 H43           -5.0337     3.0086    -3.0226 H       
  44 H44            1.7921     1.9678    -0.7813 H       
@<TRIPOS>BOND
   1    1    2 1
   2    1   10 1
   3    1   18 1
   4    1   31 1
   5    2   12 1
   6    2   13 1
   7    2   14 1
   8    3    4 ar
   9    3    8 ar
  10    3    9 1
  11    4    5 ar
  12    4   10 1
  13    5    6 ar
  14    5   32 1
  15    6    7 ar
  16    6   33 1
  17    7    8 ar
  18    7   34 1
  19    9   11 1
  20    9   35 1
  21   10   11 2
  22   11   36 1
  23   15   16 ar
  24   15   20 ar
  25   15   22 1
  26   16   17 ar
  27   16   23 1
  28   17   18 ar
  29   17   30 1
  30   18   19 ar
  31   19   20 ar
  32   19   37 1
  33   21   22 1
  34   21   23 2
  35   22   24 1
  36   23   38 1
  37   24   25 ar
  38   24   29 ar
  39   25   26 ar
  40   25   39 1
  41   26   27 ar
  42   26   40 1
  43   27   28 ar
  44   27   41 1
  45   28   29 ar
  46   28   42 1
  47   29   43 1
  48   31   44 1

#	End of record

