#	Name: ASD01883134
#	Creating user name:	WinNT
#	Creation time:	15. 06. 2019 19:45

#	Modifying user name:	WinNT
#	Modification time:	15. 06. 2019 19:45

#	Program:	/corina/corina34_cracker 3.40 0067  02.08.2006

@<TRIPOS>MOLECULE
ASD01883134
  38   39    0    0    0
SMALL
NO_CHARGES


@<TRIPOS>ATOM
   1 N1            -0.0162     1.3417     0.0094 N.am    
   2 C2             0.0021    -0.0041     0.0020 C.2     
   3 C3            -1.2167    -0.7275     0.0102 C.2     
   4 C4            -2.4257    -0.0118     0.0261 C.2     
   5 C5            -2.3786     1.3954     0.0332 C.2     
   6 C6            -1.1848     2.0319     0.0299 C.2     
   7 O7             1.0656    -0.6000    -0.0121 O.2     
   8 C8            -1.2158    -2.1595     0.0021 C.1     
   9 N9            -1.2152    -3.2954    -0.0044 N.1     
  10 C10            1.2511     2.0766     0.0013 C.3     
  11 C11            1.6785     2.3402    -1.4440 C.3     
  12 C12            3.0021     3.1077    -1.4525 C.3     
  13 C13            4.1048     2.2293    -0.8581 C.3     
  14 C14            3.3665     3.4800    -2.8911 C.3     
  15 C15           -3.7229    -0.7230     0.0347 C.ar    
  16 C16           -4.5717    -0.6187     1.1376 C.ar    
  17 C17           -5.7806    -1.2840     1.1406 C.ar    
  18 C18           -6.1528    -2.0543     0.0539 C.ar    
  19 C19           -5.3151    -2.1632    -1.0450 C.ar    
  20 C20           -4.1052    -1.4963    -1.0625 C.ar    
  21 F21           -5.6849    -2.9176    -2.1030 F       
  22 H22           -3.2952     1.9664     0.0453 H       
  23 H23           -1.1613     3.1116     0.0354 H       
  24 H24            1.1239     3.0260     0.5214 H       
  25 H25            2.0167     1.4862     0.5046 H       
  26 H26            1.8057     1.3908    -1.9642 H       
  27 H27            0.9129     2.9306    -1.9474 H       
  28 H28            2.8998     4.0150    -0.8572 H       
  29 H29            4.2071     1.3220    -1.4534 H       
  30 H30            5.0477     2.7761    -0.8642 H       
  31 H31            3.8452     1.9641     0.1668 H       
  32 H32            2.5809     4.1058    -3.3145 H       
  33 H33            4.3094     4.0268    -2.8971 H       
  34 H34            3.4688     2.5727    -3.4864 H       
  35 H35           -4.2827    -0.0184     1.9876 H       
  36 H36           -6.4375    -1.2034     1.9940 H       
  37 H37           -7.1000    -2.5732     0.0616 H       
  38 H38           -3.4527    -1.5809    -1.9189 H       
@<TRIPOS>BOND
   1    1    2 am
   2    1   10 1
   3    1    6 1
   4    2    3 1
   5    2    7 2
   6    3    4 2
   7    3    8 1
   8    4    5 1
   9    4   15 1
  10    5    6 2
  11    5   22 1
  12    6   23 1
  13    8    9 3
  14   10   11 1
  15   10   24 1
  16   10   25 1
  17   11   12 1
  18   11   26 1
  19   11   27 1
  20   12   13 1
  21   12   14 1
  22   12   28 1
  23   13   29 1
  24   13   30 1
  25   13   31 1
  26   14   32 1
  27   14   33 1
  28   14   34 1
  29   15   16 ar
  30   15   20 ar
  31   16   17 ar
  32   16   35 1
  33   17   18 ar
  34   17   36 1
  35   18   19 ar
  36   18   37 1
  37   19   20 ar
  38   19   21 1
  39   20   38 1

#	End of record

