#	Name: ASD01885849
#	Creating user name:	WinNT
#	Creation time:	15. 06. 2019 19:50

#	Modifying user name:	WinNT
#	Modification time:	15. 06. 2019 19:50

#	Program:	/corina/corina34_cracker 3.40 0067  02.08.2006

@<TRIPOS>MOLECULE
ASD01885849
  48   51    0    0    0
SMALL
NO_CHARGES


@<TRIPOS>ATOM
   1 C1            -0.0170     1.4037     0.0098 C.ar    
   2 C2             1.2138     2.1080     0.0018 C.ar    
   3 C3             1.1960     3.5258     0.0097 C.ar    
   4 C4            -0.0387     4.1599     0.0249 C.ar    
   5 C5            -1.2083     3.3914     0.0319 C.ar    
   6 N6            -1.1703     2.0724     0.0299 N.ar    
   7 C7             0.0021    -0.0041     0.0020 C.ar    
   8 C8             1.1925    -0.6629    -0.0129 C.ar    
   9 C9             2.3992     0.0335    -0.0208 C.ar    
  10 C10            2.4200     1.3962    -0.0132 C.ar    
  11 C11            2.4549     4.3054     0.0024 C.ar    
  12 C12           -2.5233     4.0766     0.0486 C.2     
  13 N13           -3.6602     3.3529     0.0556 N.am    
  14 O14           -2.5757     5.2904     0.0561 O.2     
  15 C15            1.2059    -2.1698    -0.0206 C.3     
  16 C16            2.6330     5.3384    -0.9182 C.ar    
  17 C17            3.8071     6.0619    -0.9207 C.ar    
  18 C18            4.8093     5.7639    -0.0110 C.ar    
  19 C19            4.6372     4.7386     0.9056 C.ar    
  20 C20            3.4644     4.0130     0.9199 C.ar    
  21 F21            5.9600     6.4718    -0.0210 F       
  22 C22            1.2238    -2.6793     1.3975 C.ar    
  23 C23            0.0339    -2.9233     2.0582 C.ar    
  24 C24            0.0476    -3.3904     3.3582 C.ar    
  25 C25            1.2565    -3.6145     4.0009 C.ar    
  26 C26            2.4490    -3.3688     3.3358 C.ar    
  27 C27            2.4299    -2.9072     2.0339 C.ar    
  28 O28            1.2726    -4.0735     5.2799 O.3     
  29 C29            2.5534    -4.2814     5.8785 C.3     
  30 H30           -0.0964     5.2383     0.0317 H       
  31 H31           -0.9245    -0.5588     0.0083 H       
  32 H32            3.3303    -0.5137    -0.0327 H       
  33 H33            3.3619     1.9246    -0.0197 H       
  34 H34           -3.6183     2.3838     0.0496 H       
  35 H35           -4.5204     3.8011     0.0665 H       
  36 H36            0.3144    -2.5385    -0.5280 H       
  37 H37            2.0942    -2.5226    -0.5446 H       
  38 H38            1.8529     5.5709    -1.6280 H       
  39 H39            3.9459     6.8618    -1.6330 H       
  40 H40            5.4211     4.5102     1.6125 H       
  41 H41            3.3294     3.2172     1.6374 H       
  42 H42           -0.9069    -2.7484     1.5576 H       
  43 H43           -0.8820    -3.5805     3.8740 H       
  44 H44            3.3914    -3.5425     3.8339 H       
  45 H45            3.3580    -2.7158     1.5156 H       
  46 H46            3.1114    -5.0152     5.2970 H       
  47 H47            3.1024    -3.3399     5.8983 H       
  48 H48            2.4234    -4.6476     6.8969 H       
@<TRIPOS>BOND
   1    1    7 ar
   2    1    2 ar
   3    1    6 ar
   4    2    3 ar
   5    2   10 ar
   6    3    4 ar
   7    3   11 1
   8    4    5 ar
   9    4   30 1
  10    5    6 ar
  11    5   12 1
  12    7    8 ar
  13    7   31 1
  14    8   15 1
  15    8    9 ar
  16    9   10 ar
  17    9   32 1
  18   10   33 1
  19   11   16 ar
  20   11   20 ar
  21   12   13 am
  22   12   14 2
  23   13   34 1
  24   13   35 1
  25   15   22 1
  26   15   36 1
  27   15   37 1
  28   16   17 ar
  29   16   38 1
  30   17   18 ar
  31   17   39 1
  32   18   19 ar
  33   18   21 1
  34   19   20 ar
  35   19   40 1
  36   20   41 1
  37   22   23 ar
  38   22   27 ar
  39   23   24 ar
  40   23   42 1
  41   24   25 ar
  42   24   43 1
  43   25   26 ar
  44   25   28 1
  45   26   27 ar
  46   26   44 1
  47   27   45 1
  48   28   29 1
  49   29   46 1
  50   29   47 1
  51   29   48 1

#	End of record

