#	Name: ASD01840387
#	Creating user name:	WinNT
#	Creation time:	15. 06. 2019 19:37

#	Modifying user name:	WinNT
#	Modification time:	15. 06. 2019 19:37

#	Program:	/corina/corina34_cracker 3.40 0067  02.08.2006

@<TRIPOS>MOLECULE
ASD01840387
  52   54    0    0    0
SMALL
NO_CHARGES


@<TRIPOS>ATOM
   1 C1             0.2611     1.7552    -0.9980 C.ar    
   2 C2             0.3841     0.5320    -1.6195 C.ar    
   3 N3             1.4990    -0.1677    -1.4965 N.ar    
   4 N4             2.4999     0.2427    -0.8111 N.ar    
   5 C5             1.3546     2.2267    -0.2364 C.ar    
   6 C6             1.5104     3.4570     0.5171 C.2     
   7 C7             2.4928     1.4121    -0.1670 C.ar    
   8 S8             3.7250     2.1824     0.8223 S.3     
   9 C9             2.7118     3.5783     1.1344 C.2     
  10 C10           -0.9999     2.5697    -1.1313 C.3     
  11 C11           -0.7562    -0.0106    -2.4419 C.3     
  12 N12            0.5179     4.4243     0.5985 N.pl3   
  13 C13            3.1102     4.7236     1.9514 C.2     
  14 O14            2.3404     5.6527     2.1138 O.2     
  15 N15            4.3297     4.7507     2.5248 N.am    
  16 C16            4.7288     5.8982     3.3434 C.3     
  17 C17            6.1479     5.6788     3.8716 C.3     
  18 C18            6.7138     6.8826     4.6465 C.3     
  19 C19            6.2007     4.9199     5.2099 C.3     
  20 N20            7.2396     5.8909     5.6046 N.am    
  21 C21            8.2591     5.8774     6.4861 C.2     
  22 O22            8.4841     4.7837     7.2384 O.3     
  23 C23            9.5995     4.8400     8.1664 C.3     
  24 C24            9.3799     5.9836     9.1588 C.3     
  25 C25            9.6973     3.5162     8.9271 C.3     
  26 C26           10.8965     5.0797     7.3909 C.3     
  27 O27            8.9751     6.8523     6.6018 O.2     
  28 H28           -1.6441     2.3852    -0.2716 H       
  29 H29           -0.7456     3.6287    -1.1742 H       
  30 H30           -1.5220     2.2841    -2.0445 H       
  31 H31           -0.6493     0.3210    -3.4747 H       
  32 H32           -0.7433    -1.1000    -2.4068 H       
  33 H33           -1.7008     0.3547    -2.0389 H       
  34 H34           -0.4028     4.1923     0.4002 H       
  35 H35            0.7452     5.3322     0.8537 H       
  36 H36            4.9430     4.0104     2.3954 H       
  37 H37            4.7027     6.8036     2.7371 H       
  38 H38            4.0410     6.0027     4.1824 H       
  39 H39            6.8269     5.2855     3.1150 H       
  40 H40            7.4893     7.4268     4.1075 H       
  41 H41            5.9476     7.5349     5.0655 H       
  42 H42            5.2838     4.9956     5.7944 H       
  43 H43            6.5666     3.8970     5.1208 H       
  44 H44            8.4559     5.8129     9.7112 H       
  45 H45           10.2172     6.0259     9.8554 H       
  46 H46            9.3103     6.9267     8.6168 H       
  47 H47            9.8537     2.7015     8.2201 H       
  48 H48           10.5346     3.5585     9.6238 H       
  49 H49            8.7733     3.3455     9.4796 H       
  50 H50           10.8268     6.0228     6.8489 H       
  51 H51           11.7338     5.1219     8.0876 H       
  52 H52           11.0529     4.2650     6.6839 H       
@<TRIPOS>BOND
   1    1    2 ar
   2    1    5 ar
   3    1   10 1
   4    2   11 1
   5    2    3 ar
   6    3    4 ar
   7    4    7 ar
   8    5    7 ar
   9    5    6 1
  10    6    9 2
  11    6   12 1
  12    7    8 1
  13    8    9 1
  14    9   13 1
  15   10   28 1
  16   10   29 1
  17   10   30 1
  18   11   31 1
  19   11   32 1
  20   11   33 1
  21   12   34 1
  22   12   35 1
  23   13   14 2
  24   13   15 am
  25   15   16 1
  26   15   36 1
  27   16   17 1
  28   16   37 1
  29   16   38 1
  30   17   18 1
  31   17   19 1
  32   17   39 1
  33   18   20 1
  34   18   40 1
  35   18   41 1
  36   19   20 1
  37   19   42 1
  38   19   43 1
  39   20   21 am
  40   21   22 1
  41   21   27 2
  42   22   23 1
  43   23   24 1
  44   23   25 1
  45   23   26 1
  46   24   44 1
  47   24   45 1
  48   24   46 1
  49   25   47 1
  50   25   48 1
  51   25   49 1
  52   26   50 1
  53   26   51 1
  54   26   52 1

#	End of record

