#	Name: ASD08178008
#	Creating user name:	WinNT
#	Creation time:	15. 06. 2019 21:18

#	Modifying user name:	WinNT
#	Modification time:	15. 06. 2019 21:18

#	Program:	/corina/corina34_cracker 3.40 0067  02.08.2006

@<TRIPOS>MOLECULE
ASD08178008
  57   58    0    0    0
SMALL
NO_CHARGES


@<TRIPOS>ATOM
   1 N1            -0.0150     1.2583     0.0090 N.2     
   2 N2             0.0021    -0.0041     0.0020 N.2     
   3 C3             1.1271     1.8769     0.0014 C.2     
   4 S4             2.3826     0.7116    -0.0169 S.3     
   5 C5             1.1681    -0.5677    -0.0121 C.2     
   6 N6             1.3017     3.2566     0.0067 N.am    
   7 C7             0.2284     4.0717     0.0214 C.2     
   8 C8             0.4176     5.5667     0.0272 C.3     
   9 O9            -0.8897     3.6019     0.0299 O.2     
  10 C10           -0.9494     6.2538     0.0441 C.3     
  11 C11           -1.6660     5.9314     1.3569 C.3     
  12 C12            1.4387    -2.0502    -0.0227 C.3     
  13 C13            1.5165    -2.5442    -1.4687 C.3     
  14 S14            1.8422    -4.3286    -1.4814 S.3     
  15 C15            1.8986    -4.7206    -3.2516 C.3     
  16 C16            2.1699    -6.2152    -3.4347 C.3     
  17 C17            2.2167    -6.5408    -4.9053 C.2     
  18 N18            3.2694    -6.5184    -5.6596 N.2     
  19 S19            0.8491    -7.0282    -5.9071 S.3     
  20 C20            1.9000    -7.1354    -7.2557 C.2     
  21 N21            3.1017    -6.8250    -6.8728 N.2     
  22 N22            1.5289    -7.4992    -8.5457 N.am    
  23 C23            2.4537    -7.5464    -9.5250 C.2     
  24 C24            2.0516    -7.9407   -10.9228 C.3     
  25 O25            3.6096    -7.2716    -9.2812 O.2     
  26 C26            3.2807    -7.9145   -11.8336 C.3     
  27 C27            4.2740    -8.9865   -11.3806 C.3     
  28 C28           -0.7609     7.7674    -0.0758 C.3     
  29 C29            2.8527    -8.1927   -13.2759 C.3     
  30 H30            2.1959     3.6323    -0.0001 H       
  31 H31            0.9817     5.8582     0.9132 H       
  32 H32            0.9643     5.8672    -0.8667 H       
  33 H33           -1.5469     5.8945    -0.7938 H       
  34 H34           -2.6398     6.4208     1.3689 H       
  35 H35           -1.8002     4.8531     1.4422 H       
  36 H36           -1.0684     6.2906     2.1947 H       
  37 H37            2.3843    -2.2506     0.4811 H       
  38 H38            0.6334    -2.5702     0.4961 H       
  39 H39            0.5709    -2.3438    -1.9724 H       
  40 H40            2.3218    -2.0242    -1.9874 H       
  41 H41            0.9434    -4.4658    -3.7108 H       
  42 H42            2.6943    -4.1461    -3.7258 H       
  43 H43            3.1250    -6.4700    -2.9755 H       
  44 H44            1.3741    -6.7896    -2.9605 H       
  45 H45            0.6045    -7.7190    -8.7407 H       
  46 H46            1.6303    -8.9459   -10.9098 H       
  47 H47            1.3064    -7.2392   -11.2980 H       
  48 H48            3.7536    -6.9341   -11.7776 H       
  49 H49            5.1496    -8.9679   -12.0295 H       
  50 H50            4.5789    -8.7884   -10.3531 H       
  51 H51            3.8010    -9.9670   -11.4366 H       
  52 H52           -0.2504     7.9970    -1.0111 H       
  53 H53           -1.7348     8.2568    -0.0638 H       
  54 H54           -0.1634     8.1266     0.7620 H       
  55 H55            2.1450    -7.4290   -13.5986 H       
  56 H56            3.7283    -8.1741   -13.9248 H       
  57 H57            2.3797    -9.1731   -13.3319 H       
@<TRIPOS>BOND
   1    1    2 1
   2    1    3 2
   3    2    5 2
   4    3    4 1
   5    3    6 1
   6    4    5 1
   7    5   12 1
   8    6    7 am
   9    6   30 1
  10    7    8 1
  11    7    9 2
  12    8   10 1
  13    8   31 1
  14    8   32 1
  15   10   11 1
  16   10   28 1
  17   10   33 1
  18   11   34 1
  19   11   35 1
  20   11   36 1
  21   12   13 1
  22   12   37 1
  23   12   38 1
  24   13   14 1
  25   13   39 1
  26   13   40 1
  27   14   15 1
  28   15   16 1
  29   15   41 1
  30   15   42 1
  31   16   17 1
  32   16   43 1
  33   16   44 1
  34   17   18 2
  35   17   19 1
  36   18   21 1
  37   19   20 1
  38   20   21 2
  39   20   22 1
  40   22   23 am
  41   22   45 1
  42   23   24 1
  43   23   25 2
  44   24   26 1
  45   24   46 1
  46   24   47 1
  47   26   29 1
  48   26   27 1
  49   26   48 1
  50   27   49 1
  51   27   50 1
  52   27   51 1
  53   28   52 1
  54   28   53 1
  55   28   54 1
  56   29   55 1
  57   29   56 1
  58   29   57 1

#	End of record

