#	Name: ASD01910915
#	Creating user name:	WinNT
#	Creation time:	15. 06. 2019 19:56

#	Modifying user name:	WinNT
#	Modification time:	15. 06. 2019 19:56

#	Program:	/corina/corina34_cracker 3.40 0067  02.08.2006

@<TRIPOS>MOLECULE
ASD01910915
  54   57    0    0    0
SMALL
NO_CHARGES


@<TRIPOS>ATOM
   1 N1             0.1870     1.3258    -0.1270 N.3     
   2 C2             0.0976    -0.1398    -0.0837 C.3     
   3 C3            -1.3592    -0.5527     0.1518 C.3     
   4 N4            -2.1984     0.0916    -0.8700 N.am    
   5 C5            -2.0640     1.5429    -1.0669 C.3     
   6 C6            -0.5794     1.8733    -1.2544 C.3     
   7 C7            -3.0672    -0.6289    -1.6065 C.2     
   8 C8            -3.9893     0.0536    -2.5394 C.ar    
   9 C9            -4.2638    -0.5082    -3.7883 C.ar    
  10 C10           -5.1247     0.1274    -4.6615 C.ar    
  11 C11           -5.7200     1.3212    -4.3076 C.ar    
  12 C12           -5.4541     1.8957    -3.0607 C.ar    
  13 C13           -4.5905     1.2555    -2.1721 C.ar    
  14 C14           -6.0719     3.1347    -2.6946 C.1     
  15 O15           -3.0927    -1.8398    -1.5040 O.2     
  16 C16           -6.5783     4.1504    -2.3944 C.1     
  17 C17           -7.1960     5.3894    -2.0283 C.ar    
  18 C18           -6.9376     5.9722    -0.7853 C.ar    
  19 N19           -7.5061     7.1116    -0.4494 N.ar    
  20 C20           -8.3327     7.7437    -1.2601 C.ar    
  21 C21           -8.6408     7.2323    -2.5083 C.ar    
  22 C22           -8.0658     6.0412    -2.9132 C.ar    
  23 C23            1.5109     1.7425    -0.1761 C.ar    
  24 C24            1.8098     3.1025    -0.2225 C.ar    
  25 C25            3.1101     3.5165    -0.2704 C.ar    
  26 C26            4.1444     2.5714    -0.2729 C.ar    
  27 C27            3.8393     1.2047    -0.2262 C.ar    
  28 C28            2.5364     0.7996    -0.1731 C.ar    
  29 C29            5.5434     3.0117    -0.3248 C.2     
  30 C30            6.6560     2.0031    -0.1990 C.3     
  31 O31            5.8042     4.1877    -0.4689 O.2     
  32 H32            0.4444    -0.5535    -1.0306 H       
  33 H33            0.7187    -0.5182     0.7282 H       
  34 H34           -1.4505    -1.6358     0.0708 H       
  35 H35           -1.6759    -0.2288     1.1432 H       
  36 H36           -2.6212     1.8453    -1.9536 H       
  37 H37           -2.4484     2.0682    -0.1926 H       
  38 H38           -0.4493     2.9549    -1.2915 H       
  39 H39           -0.2232     1.4315    -2.1850 H       
  40 H40           -3.8013    -1.4420    -4.0721 H       
  41 H41           -5.3328    -0.3118    -5.6260 H       
  42 H42           -6.3922     1.8129    -4.9952 H       
  43 H43           -4.3813     1.6943    -1.2077 H       
  44 H44           -6.2664     5.4843    -0.0941 H       
  45 H45           -8.7769     8.6761    -0.9440 H       
  46 H46           -9.3198     7.7600    -3.1617 H       
  47 H47           -8.2888     5.6195    -3.8821 H       
  48 H48            1.0119     3.8303    -0.2209 H       
  49 H49            3.3409     4.5709    -0.3067 H       
  50 H50            4.6336     0.4729    -0.2283 H       
  51 H51            2.3004    -0.2537    -0.1367 H       
  52 H52            6.2339     0.9986    -0.1683 H       
  53 H53            7.3242     2.0904    -1.0557 H       
  54 H54            7.2145     2.1907     0.7180 H       
@<TRIPOS>BOND
   1    1    2 1
   2    1   23 1
   3    1    6 1
   4    2    3 1
   5    2   32 1
   6    2   33 1
   7    3    4 1
   8    3   34 1
   9    3   35 1
  10    4    5 1
  11    4    7 am
  12    5    6 1
  13    5   36 1
  14    5   37 1
  15    6   38 1
  16    6   39 1
  17    7    8 1
  18    7   15 2
  19    8    9 ar
  20    8   13 ar
  21    9   10 ar
  22    9   40 1
  23   10   11 ar
  24   10   41 1
  25   11   12 ar
  26   11   42 1
  27   12   13 ar
  28   12   14 1
  29   13   43 1
  30   14   16 3
  31   16   17 1
  32   17   18 ar
  33   17   22 ar
  34   18   19 ar
  35   18   44 1
  36   19   20 ar
  37   20   21 ar
  38   20   45 1
  39   21   22 ar
  40   21   46 1
  41   22   47 1
  42   23   24 ar
  43   23   28 ar
  44   24   25 ar
  45   24   48 1
  46   25   26 ar
  47   25   49 1
  48   26   27 ar
  49   26   29 1
  50   27   28 ar
  51   27   50 1
  52   28   51 1
  53   29   30 1
  54   29   31 2
  55   30   52 1
  56   30   53 1
  57   30   54 1

#	End of record

