#	Name: ASD03090990
#	Creating user name:	WinNT
#	Creation time:	15. 06. 2019 20:29

#	Modifying user name:	WinNT
#	Modification time:	15. 06. 2019 20:29

#	Program:	/corina/corina34_cracker 3.40 0067  02.08.2006

@<TRIPOS>MOLECULE
ASD03090990
  40   42    0    0    0
SMALL
NO_CHARGES


@<TRIPOS>ATOM
   1 N1            -0.0175     1.3431    -0.0865 N.am    
   2 C2             0.0012    -0.0044    -0.0682 C.2     
   3 O3             1.0649    -0.5994    -0.0778 O.2     
   4 N4            -1.1464    -0.6880    -0.0396 N.2     
   5 C5             1.2408     2.0927    -0.1178 C.3     
   6 C6            -1.2961     2.0582    -0.0810 C.3     
   7 S7             0.2595    -3.0387    -0.0302 S.3     
   8 C8            -1.1280    -2.0187    -0.0216 C.2     
   9 N9            -2.1987    -2.8518     0.0077 N.pl3   
  10 C10           -1.9391    -4.1884     0.0222 C.2     
  11 C11           -0.6633    -4.5510     0.0063 C.2     
  12 C12           -0.1140    -5.9542     0.0173 C.3     
  13 C13            0.6188    -6.2255    -1.2981 C.3     
  14 O14            0.7965    -6.1007     1.1089 O.3     
  15 O15           -7.4524    -1.1574     0.0453 O.3     
  16 C16           -8.0539    -2.4331     0.3354 C.3     
  17 O17           -7.0845    -3.3848    -0.1417 O.3     
  18 C18           -5.8790    -2.7494    -0.0608 C.ar    
  19 C19           -6.1048    -1.3793     0.0543 C.ar    
  20 C20           -4.5832    -3.2363    -0.0763 C.ar    
  21 C21           -3.5113    -2.3592     0.0230 C.ar    
  22 C22           -3.7393    -0.9949     0.1377 C.ar    
  23 C23           -5.0326    -0.5079     0.1538 C.ar    
  24 F24           -8.2518    -2.5814     1.7124 F       
  25 F25           -9.2627    -2.5748    -0.3544 F       
  26 H26            1.8010     1.8250    -1.0137 H       
  27 H27            1.0269     3.1615    -0.1290 H       
  28 H28            1.8308     1.8495     0.7658 H       
  29 H29           -1.6010     2.2496     0.9478 H       
  30 H30           -1.1851     3.0052    -0.6092 H       
  31 H31           -2.0536     1.4518    -0.5776 H       
  32 H32           -2.7344    -4.9188     0.0456 H       
  33 H33           -0.9334    -6.6643     0.1299 H       
  34 H34            1.4381    -5.5154    -1.4106 H       
  35 H35            1.0161    -7.2404    -1.2901 H       
  36 H36           -0.0758    -6.1137    -2.1307 H       
  37 H37            1.5524    -5.4987     1.0740 H       
  38 H38           -4.4060    -4.2979    -0.1651 H       
  39 H39           -2.9052    -0.3132     0.2149 H       
  40 H40           -5.2076     0.5542     0.2426 H       
@<TRIPOS>BOND
   1    1    2 am
   2    1    5 1
   3    1    6 1
   4    2    3 2
   5    2    4 1
   6    4    8 2
   7    5   26 1
   8    5   27 1
   9    5   28 1
  10    6   29 1
  11    6   30 1
  12    6   31 1
  13    7    8 1
  14    7   11 1
  15    8    9 1
  16    9   10 1
  17    9   21 1
  18   10   11 2
  19   10   32 1
  20   11   12 1
  21   12   13 1
  22   12   14 1
  23   12   33 1
  24   13   34 1
  25   13   35 1
  26   13   36 1
  27   14   37 1
  28   15   16 1
  29   15   19 1
  30   16   17 1
  31   16   24 1
  32   16   25 1
  33   17   18 1
  34   18   19 ar
  35   18   20 ar
  36   19   23 ar
  37   20   21 ar
  38   20   38 1
  39   21   22 ar
  40   22   23 ar
  41   22   39 1
  42   23   40 1

#	End of record

