#	Name: ASD03091235
#	Creating user name:	WinNT
#	Creation time:	15. 06. 2019 20:30

#	Modifying user name:	WinNT
#	Modification time:	15. 06. 2019 20:30

#	Program:	/corina/corina34_cracker 3.40 0067  02.08.2006

@<TRIPOS>MOLECULE
ASD03091235
  51   55    0    0    0
SMALL
NO_CHARGES


@<TRIPOS>ATOM
   1 N1             0.1192     1.0913     0.1180 N.2     
   2 C2             0.3365    -0.1986     0.1215 C.2     
   3 N3             1.5907    -0.7449     0.0691 N.am    
   4 C4             2.6828     0.0523     0.0102 C.2     
   5 C5             2.4623     1.5061     0.0052 C.ar    
   6 C6             3.5217     2.4088    -0.0537 C.ar    
   7 C7             3.2562     3.7678    -0.0562 C.ar    
   8 C8             1.9414     4.2306    -0.0002 C.ar    
   9 C9             0.8931     3.3581     0.0580 C.ar    
  10 C10            1.1317     1.9802     0.0618 C.ar    
  11 O11            3.8053    -0.4165    -0.0364 O.2     
  12 C12            1.7516    -2.2010     0.0774 C.3     
  13 C13           -0.8256    -1.1082     0.1853 C.ar    
  14 C14           -1.0226    -2.0669    -0.8129 C.ar    
  15 C15           -2.1146    -2.9154    -0.7452 C.ar    
  16 C16           -3.0081    -2.8136     0.3077 C.ar    
  17 C17           -2.8161    -1.8658     1.2975 C.ar    
  18 C18           -1.7292    -1.0183     1.2459 C.ar    
  19 F19           -2.3088    -3.8433    -1.7077 F       
  20 F20           -0.1507    -2.1648    -1.8403 F       
  21 N21            6.8282     5.8731    -1.1245 N.3     
  22 C22            6.7774     4.9512     0.0204 C.3     
  23 C23            5.6068     3.9899    -0.1155 C.3     
  24 N24            4.3122     4.6815    -0.1146 N.3     
  25 C25            4.1899     5.5532    -1.2914 C.3     
  26 C26            4.6234     6.9708    -0.9494 C.3     
  27 C27            6.1236     7.1208    -0.7968 C.3     
  28 C28            6.4374     5.3252    -2.4057 C.3     
  29 C29            4.9665     4.9445    -2.4447 C.3     
  30 H30            4.5402     2.0521    -0.0968 H       
  31 H31            1.7503     5.2936    -0.0025 H       
  32 H32           -0.1193     3.7316     0.1012 H       
  33 H33            1.7056    -2.5775    -0.9445 H       
  34 H34            2.7159    -2.4575     0.5160 H       
  35 H35            0.9530    -2.6515     0.6669 H       
  36 H36           -3.8590    -3.4769     0.3565 H       
  37 H37           -3.5175    -1.7922     2.1154 H       
  38 H38           -1.5799    -0.2827     2.0224 H       
  39 H39            7.7060     4.3822     0.0648 H       
  40 H40            6.6650     5.5261     0.9396 H       
  41 H41            5.7109     3.4366    -1.0488 H       
  42 H42            5.6309     3.2847     0.7153 H       
  43 H43            3.1398     5.5813    -1.5825 H       
  44 H44            4.2839     7.6404    -1.7396 H       
  45 H45            4.1458     7.2665    -0.0153 H       
  46 H46            6.3506     7.3978     0.2327 H       
  47 H47            6.4717     7.9113    -1.4616 H       
  48 H48            6.6314     6.0663    -3.1811 H       
  49 H49            7.0376     4.4383    -2.6089 H       
  50 H50            4.8801     3.8590    -2.3962 H       
  51 H51            4.5356     5.2910    -3.3840 H       
@<TRIPOS>BOND
   1    1    2 2
   2    1   10 1
   3    2    3 1
   4    2   13 1
   5    3    4 am
   6    3   12 1
   7    4    5 1
   8    4   11 2
   9    5    6 ar
  10    5   10 ar
  11    6    7 ar
  12    6   30 1
  13    7    8 ar
  14    7   24 1
  15    8    9 ar
  16    8   31 1
  17    9   10 ar
  18    9   32 1
  19   12   33 1
  20   12   34 1
  21   12   35 1
  22   13   14 ar
  23   13   18 ar
  24   14   15 ar
  25   14   20 1
  26   15   16 ar
  27   15   19 1
  28   16   17 ar
  29   16   36 1
  30   17   18 ar
  31   17   37 1
  32   18   38 1
  33   21   22 1
  34   21   27 1
  35   21   28 1
  36   22   23 1
  37   22   39 1
  38   22   40 1
  39   23   24 1
  40   23   41 1
  41   23   42 1
  42   24   25 1
  43   25   26 1
  44   25   29 1
  45   25   43 1
  46   26   27 1
  47   26   44 1
  48   26   45 1
  49   27   46 1
  50   27   47 1
  51   28   29 1
  52   28   48 1
  53   28   49 1
  54   29   50 1
  55   29   51 1

#	End of record

