#	Name: ASD01912347
#	Creating user name:	WinNT
#	Creation time:	15. 06. 2019 19:59

#	Modifying user name:	WinNT
#	Modification time:	15. 06. 2019 19:59

#	Program:	/corina/corina34_cracker 3.40 0067  02.08.2006

@<TRIPOS>MOLECULE
ASD01912347
  54   56    0    0    0
SMALL
NO_CHARGES


@<TRIPOS>ATOM
   1 C1            -0.3264     0.7480    -1.1769 C.2     
   2 C2            -0.0342    -0.0601     0.0611 C.3     
   3 O3             0.5409     0.9213    -2.0067 O.2     
   4 N4            -1.5533     1.2734    -1.3646 N.am    
   5 C5             1.3956    -0.5349     0.0252 C.ar    
   6 C6             2.3949     0.2462     0.5786 C.ar    
   7 C7             3.7056    -0.1828     0.5495 C.ar    
   8 C8             4.0229    -1.4077    -0.0401 C.ar    
   9 C9             3.0103    -2.1905    -0.5964 C.ar    
  10 C10            1.7026    -1.7522    -0.5559 C.ar    
  11 C11            5.4256    -1.8735    -0.0753 C.2     
  12 O12            6.0604    -1.9690     0.9569 O.2     
  13 N13            6.0005    -2.1921    -1.2519 N.am    
  14 C14            7.4173    -2.5748    -1.3068 C.3     
  15 C15            7.5274    -3.9725    -1.9292 C.3     
  16 C16            6.7157    -3.9928    -3.2058 C.2     
  17 C17            5.2710    -3.5476    -3.1467 C.3     
  18 C18            5.2158    -2.1664    -2.4930 C.3     
  19 C19            7.2601    -4.3927    -4.3542 C.2     
  20 C20            6.4759    -4.4051    -5.5523 C.1     
  21 C21            5.8329    -4.4152    -6.5345 C.1     
  22 C22            5.0487    -4.4276    -7.7326 C.ar    
  23 C23            5.6248    -4.8480    -8.9350 C.ar    
  24 C24            4.8536    -4.8539   -10.0826 C.ar    
  25 C25            3.5309    -4.4400    -9.9956 C.ar    
  26 C26            3.0238    -4.0363    -8.7740 C.ar    
  27 N27            3.7758    -4.0442    -7.6927 N.ar    
  28 C28            1.5887    -3.5867    -8.6773 C.3     
  29 C29            4.7926     0.6693     1.1522 C.3     
  30 H30           -0.1892     0.5594     0.9444 H       
  31 H31           -0.7020    -0.9208     0.0992 H       
  32 H32           -2.2482     1.1314    -0.7029 H       
  33 H33           -1.7414     1.7936    -2.1615 H       
  34 H34            2.1481     1.1938     1.0341 H       
  35 H35            3.2492    -3.1392    -1.0540 H       
  36 H36            0.9175    -2.3589    -0.9824 H       
  37 H37            7.9659    -1.8583    -1.9182 H       
  38 H38            7.8310    -2.5901    -0.2985 H       
  39 H39            8.5709    -4.1928    -2.1542 H       
  40 H40            7.1367    -4.7155    -1.2340 H       
  41 H41            4.8618    -3.4944    -4.1556 H       
  42 H42            4.6929    -4.2554    -2.5526 H       
  43 H43            4.1804    -1.9130    -2.2655 H       
  44 H44            5.6342    -1.4258    -3.1746 H       
  45 H45            8.2928    -4.7075    -4.3815 H       
  46 H46            6.6572    -5.1633    -8.9670 H       
  47 H47            5.2710    -5.1731   -11.0262 H       
  48 H48            2.9035    -4.4332   -10.8747 H       
  49 H49            0.9536    -4.4442    -8.4548 H       
  50 H50            1.4923    -2.8472    -7.8824 H       
  51 H51            1.2821    -3.1437    -9.6249 H       
  52 H52            4.8618     0.4675     2.2212 H       
  53 H53            5.7444     0.4346     0.6758 H       
  54 H54            4.5578     1.7222     0.9957 H       
@<TRIPOS>BOND
   1    1    2 1
   2    1    3 2
   3    1    4 am
   4    2    5 1
   5    2   30 1
   6    2   31 1
   7    4   32 1
   8    4   33 1
   9    5    6 ar
  10    5   10 ar
  11    6    7 ar
  12    6   34 1
  13    7    8 ar
  14    7   29 1
  15    8    9 ar
  16    8   11 1
  17    9   10 ar
  18    9   35 1
  19   10   36 1
  20   11   12 2
  21   11   13 am
  22   13   14 1
  23   13   18 1
  24   14   15 1
  25   14   37 1
  26   14   38 1
  27   15   16 1
  28   15   39 1
  29   15   40 1
  30   16   17 1
  31   16   19 2
  32   17   18 1
  33   17   41 1
  34   17   42 1
  35   18   43 1
  36   18   44 1
  37   19   20 1
  38   19   45 1
  39   20   21 3
  40   21   22 1
  41   22   23 ar
  42   22   27 ar
  43   23   24 ar
  44   23   46 1
  45   24   25 ar
  46   24   47 1
  47   25   26 ar
  48   25   48 1
  49   26   27 ar
  50   26   28 1
  51   28   49 1
  52   28   50 1
  53   28   51 1
  54   29   52 1
  55   29   53 1
  56   29   54 1

#	End of record

