#	Name: ASD02770073
#	Creating user name:	WinNT
#	Creation time:	15. 06. 2019 20:26

#	Modifying user name:	WinNT
#	Modification time:	15. 06. 2019 20:26

#	Program:	/corina/corina34_cracker 3.40 0067  02.08.2006

@<TRIPOS>MOLECULE
ASD02770073
  45   46    0    0    0
SMALL
NO_CHARGES


@<TRIPOS>ATOM
   1 C1            -0.0184     1.5028     0.0103 C.2     
   2 C2             0.0021    -0.0041     0.0020 C.3     
   3 O3             1.0236     2.1234     0.0037 O.2     
   4 N4            -1.1946     2.1607     0.0195 N.am    
   5 O5             1.3556    -0.4620    -0.0134 O.3     
   6 C6             1.5521    -1.8078    -0.0225 C.ar    
   7 C7             1.6410    -2.4889    -1.2268 C.ar    
   8 C8             1.8413    -3.8574    -1.2338 C.ar    
   9 C9             1.9527    -4.5488    -0.0418 C.ar    
  10 C10            1.8649    -3.8754     1.1623 C.ar    
  11 C11            1.6701    -2.5033     1.1766 C.ar    
  12 C12            2.1699    -6.0400    -0.0550 C.3     
  13 N13            3.6109    -6.3248    -0.0716 N.3     
  14 C14            3.8614    -7.7722    -0.0849 C.3     
  15 C15            5.3696    -8.0288    -0.1019 C.3     
  16 C16            5.6265    -9.5136    -0.1155 C.ar    
  17 C17            5.7323   -10.1858    -1.3188 C.ar    
  18 C18            5.9679   -11.5479    -1.3313 C.ar    
  19 C19            6.0981   -12.2377    -0.1405 C.ar    
  20 C20            5.9932   -11.5654     1.0628 C.ar    
  21 C21            5.7620   -10.2026     1.0752 C.ar    
  22 O22            1.5891    -1.8389     2.3605 O.3     
  23 C23            1.7191    -2.6176     3.5516 C.3     
  24 Br24           1.4879    -1.5471    -2.8594 Br      
  25 H25           -0.4983    -0.3791     0.8948 H       
  26 H26           -0.5153    -0.3696    -0.8850 H       
  27 H27           -2.0280     1.6644     0.0207 H       
  28 H28           -1.2077     3.1306     0.0248 H       
  29 H29            1.9104    -4.3871    -2.1725 H       
  30 H30            1.9523    -4.4180     2.0919 H       
  31 H31            1.7228    -6.4802     0.8363 H       
  32 H32            1.7049    -6.4670    -0.9436 H       
  33 H33            4.0598    -5.8730    -0.8542 H       
  34 H34            3.4259    -8.2245     0.8062 H       
  35 H35            3.4081    -8.2113    -0.9736 H       
  36 H36            5.8050    -7.5765    -0.9930 H       
  37 H37            5.8229    -7.5897     0.7868 H       
  38 H38            5.6305    -9.6468    -2.2492 H       
  39 H39            6.0498   -12.0731    -2.2714 H       
  40 H40            6.2815   -13.3020    -0.1502 H       
  41 H41            6.0947   -12.1044     1.9932 H       
  42 H42            5.6837    -9.6767     2.0153 H       
  43 H43            1.6358    -1.9668     4.4220 H       
  44 H44            0.9297    -3.3686     3.5827 H       
  45 H45            2.6908    -3.1113     3.5587 H       
@<TRIPOS>BOND
   1    1    2 1
   2    1    3 2
   3    1    4 am
   4    2    5 1
   5    2   25 1
   6    2   26 1
   7    4   27 1
   8    4   28 1
   9    5    6 1
  10    6    7 ar
  11    6   11 ar
  12    7    8 ar
  13    7   24 1
  14    8    9 ar
  15    8   29 1
  16    9   10 ar
  17    9   12 1
  18   10   11 ar
  19   10   30 1
  20   11   22 1
  21   12   13 1
  22   12   31 1
  23   12   32 1
  24   13   14 1
  25   13   33 1
  26   14   15 1
  27   14   34 1
  28   14   35 1
  29   15   16 1
  30   15   36 1
  31   15   37 1
  32   16   17 ar
  33   16   21 ar
  34   17   18 ar
  35   17   38 1
  36   18   19 ar
  37   18   39 1
  38   19   20 ar
  39   19   40 1
  40   20   21 ar
  41   20   41 1
  42   21   42 1
  43   22   23 1
  44   23   43 1
  45   23   44 1
  46   23   45 1

#	End of record

