#	Name: ASD08150953
#	Creating user name:	WinNT
#	Creation time:	15. 06. 2019 21:16

#	Modifying user name:	WinNT
#	Modification time:	15. 06. 2019 21:16

#	Program:	/corina/corina34_cracker 3.40 0067  02.08.2006

@<TRIPOS>MOLECULE
ASD08150953
  56   60    0    0    0
SMALL
NO_CHARGES


@<TRIPOS>ATOM
   1 C1            -0.8076    -4.0352    -4.2455 C.3     
   2 S2             0.4653    -5.0104    -3.3972 S.o2    
   3 O3             0.0993    -5.2379    -2.0432 O.2     
   4 O4             0.9107    -6.0763    -4.2247 O.2     
   5 N5             1.7695    -3.9945    -3.3026 N.am    
   6 N6             3.5770    -1.2707    -2.2218 N.3     
   7 C7             2.4969    -1.6418    -3.1615 C.3     
   8 C8             1.6897    -2.7729    -2.4978 C.3     
   9 C9             2.3586    -2.9924    -1.1215 C.3     
  10 C10            3.0864    -1.6477    -0.8715 C.3     
  11 N11            1.5864     0.6492    -1.7576 N.ar    
  12 C12            0.6329     1.5207    -1.5347 C.ar    
  13 C13            0.8662     2.8930    -1.5944 C.ar    
  14 C14            2.1150     3.3596    -1.8911 C.ar    
  15 C15            3.1361     2.4202    -2.1293 C.ar    
  16 C16            4.4445     2.8271    -2.4394 C.ar    
  17 C17            5.4111     1.8929    -2.6643 C.ar    
  18 C18            5.1233     0.5333    -2.5915 C.ar    
  19 C19            3.8519     0.0955    -2.2905 C.ar    
  20 C20            2.8293     1.0396    -2.0526 C.ar    
  21 C21            6.2157    -0.4730    -2.8462 C.3     
  22 C22            6.1138    -0.9832    -4.2850 C.3     
  23 N23            7.5207     0.1612    -2.6443 N.pl3   
  24 N24           10.2366     1.4295    -1.9615 N.2     
  25 C25           11.2521     1.8127    -1.2434 C.2     
  26 N26           11.0618     1.4580     0.0590 N.pl3   
  27 C27            9.8513     0.8172     0.1381 C.ar    
  28 N28            9.1463     0.2607     1.1176 N.ar    
  29 C29            7.9780    -0.2940     0.8719 C.ar    
  30 N30            7.4505    -0.3291    -0.3381 N.ar    
  31 C31            8.0820     0.2022    -1.3800 C.ar    
  32 C32            9.3327     0.8064    -1.1678 C.ar    
  33 Cl33           4.8294     4.5171    -2.5367 Cl      
  34 H34           -1.0294    -3.1415    -3.6621 H       
  35 H35           -0.4456    -3.7448    -5.2317 H       
  36 H36           -1.7125    -4.6333    -4.3522 H       
  37 H37            2.5864    -4.2081    -3.7800 H       
  38 H38            1.8515    -0.7825    -3.3435 H       
  39 H39            2.9256    -1.9930    -4.1001 H       
  40 H40            0.6503    -2.4709    -2.3694 H       
  41 H41            1.6079    -3.1736    -0.3522 H       
  42 H42            3.0726    -3.8148    -1.1664 H       
  43 H43            3.9205    -1.7838    -0.1832 H       
  44 H44            2.3912    -0.8988    -0.4919 H       
  45 H45           -0.3595     1.1658    -1.2990 H       
  46 H46            0.0603     3.5870    -1.4066 H       
  47 H47            2.3136     4.4200    -1.9420 H       
  48 H48            6.4150     2.2123    -2.9022 H       
  49 H49            6.1075    -1.3094    -2.1556 H       
  50 H50            6.9327    -1.6744    -4.4843 H       
  51 H51            5.1626    -1.4978    -4.4216 H       
  52 H52            6.1734    -0.1409    -4.9743 H       
  53 H53            7.9915     0.5525    -3.3968 H       
  54 H54           12.1182     2.3342    -1.6234 H       
  55 H55           11.6708     1.6273     0.7948 H       
  56 H56            7.4307    -0.7375     1.6905 H       
@<TRIPOS>BOND
   1    1    2 1
   2    1   34 1
   3    1   35 1
   4    1   36 1
   5    2    3 2
   6    2    4 2
   7    2    5 am
   8    5    8 1
   9    5   37 1
  10    6    7 1
  11    6   10 1
  12    6   19 1
  13    7    8 1
  14    7   38 1
  15    7   39 1
  16    8    9 1
  17    8   40 1
  18    9   10 1
  19    9   41 1
  20    9   42 1
  21   10   43 1
  22   10   44 1
  23   11   12 ar
  24   11   20 ar
  25   12   13 ar
  26   12   45 1
  27   13   14 ar
  28   13   46 1
  29   14   15 ar
  30   14   47 1
  31   15   16 ar
  32   15   20 ar
  33   16   17 ar
  34   16   33 1
  35   17   18 ar
  36   17   48 1
  37   18   19 ar
  38   18   21 1
  39   19   20 ar
  40   21   22 1
  41   21   23 1
  42   21   49 1
  43   22   50 1
  44   22   51 1
  45   22   52 1
  46   23   31 1
  47   23   53 1
  48   24   25 2
  49   24   32 1
  50   25   26 1
  51   25   54 1
  52   26   27 1
  53   26   55 1
  54   27   28 ar
  55   27   32 ar
  56   28   29 ar
  57   29   30 ar
  58   29   56 1
  59   30   31 ar
  60   31   32 ar

#	End of record

