#	Name: ASD01884094
#	Creating user name:	WinNT
#	Creation time:	15. 06. 2019 19:47

#	Modifying user name:	WinNT
#	Modification time:	15. 06. 2019 19:47

#	Program:	/corina/corina34_cracker 3.40 0067  02.08.2006

@<TRIPOS>MOLECULE
ASD01884094
  63   66    0    0    0
SMALL
NO_CHARGES


@<TRIPOS>ATOM
   1 C1            -0.0168     1.3884     0.0097 C.2     
   2 C2             0.0021    -0.0041     0.0020 C.2     
   3 C3            -1.2095    -0.6965     0.0104 C.2     
   4 C4            -2.3831    -0.0157     0.0252 C.2     
   5 N5            -2.4093     1.3392     0.0327 N.am    
   6 C6            -1.2693     2.0558     0.0312 C.2     
   7 O7            -1.3129     3.2741     0.0380 O.2     
   8 C8            -3.6983     2.0352     0.0483 C.3     
   9 C9            -4.1338     2.2698     1.4962 C.3     
  10 C10           -5.4800     2.9967     1.5124 C.3     
  11 C11           -6.5555     2.0919     0.9078 C.3     
  12 C12           -5.8558     3.3419     2.9548 C.3     
  13 C13            1.2059     2.1337     0.0020 C.1     
  14 N14            2.1759     2.7249    -0.0041 N.1     
  15 C15            1.3105    -0.7515    -0.0155 C.3     
  16 N16            1.6901    -1.1066     1.3585 N.3     
  17 C17            2.8290    -2.0352     1.3670 C.3     
  18 C18            3.2431    -2.3172     2.8131 C.3     
  19 N19            2.1012    -2.8822     3.5456 N.3     
  20 C20            0.9623    -1.9536     3.5371 C.3     
  21 C21            0.5482    -1.6716     2.0910 C.3     
  22 C22            2.4603    -3.2182     4.8456 C.ar    
  23 C23            1.5157    -3.7724     5.7104 C.ar    
  24 C24            1.9188    -4.0909     6.9950 C.ar    
  25 C25            3.2485    -3.8373     7.3471 C.ar    
  26 N26            4.0765    -3.3072     6.4571 N.ar    
  27 N27            3.7019    -3.0176     5.2641 N.ar    
  28 C28            3.7310    -4.1600     8.7121 C.ar    
  29 C29            5.0558    -3.9077     9.0635 C.ar    
  30 C30            5.4993    -4.2100    10.3350 C.ar    
  31 C31            4.6317    -4.7628    11.2597 C.ar    
  32 C32            3.3158    -5.0155    10.9164 C.ar    
  33 C33            2.8598    -4.7115     9.6498 C.ar    
  34 H34           -1.2130    -1.7765     0.0046 H       
  35 H35           -3.3137    -0.5638     0.0308 H       
  36 H36           -3.5999     2.9937    -0.4613 H       
  37 H37           -4.4456     1.4275    -0.4619 H       
  38 H38           -4.2323     1.3113     2.0058 H       
  39 H39           -3.3866     2.8775     2.0064 H       
  40 H40           -5.4052     3.9132     0.9272 H       
  41 H41           -7.5146     2.6098     0.9194 H       
  42 H42           -6.2878     1.8460    -0.1198 H       
  43 H43           -6.6304     1.1754     1.4930 H       
  44 H44           -5.0896     3.9865     3.3856 H       
  45 H45           -6.8149     3.8597     2.9664 H       
  46 H46           -5.9307     2.4254     3.5401 H       
  47 H47            1.2023    -1.6595    -0.6087 H       
  48 H48            2.0835    -0.1207    -0.4544 H       
  49 H49            2.5411    -2.9683     0.8826 H       
  50 H50            3.6659    -1.5892     0.8295 H       
  51 H51            4.0692    -3.0283     2.8228 H       
  52 H52            3.5569    -1.3883     3.2893 H       
  53 H53            0.1254    -2.3996     4.0746 H       
  54 H54            1.2502    -1.0205     4.0215 H       
  55 H55           -0.2779    -0.9605     2.0813 H       
  56 H56            0.2344    -2.6005     1.6148 H       
  57 H57            0.5003    -3.9473     5.3867 H       
  58 H58            1.2277    -4.5217     7.7044 H       
  59 H59            5.7342    -3.4767     8.3421 H       
  60 H60            6.5257    -4.0148    10.6084 H       
  61 H61            4.9832    -4.9985    12.2533 H       
  62 H62            2.6428    -5.4476    11.6422 H       
  63 H63            1.8321    -4.9091     9.3828 H       
@<TRIPOS>BOND
   1    1    2 2
   2    1   13 1
   3    1    6 1
   4    2    3 1
   5    2   15 1
   6    3    4 2
   7    3   34 1
   8    4    5 1
   9    4   35 1
  10    5    6 am
  11    5    8 1
  12    6    7 2
  13    8    9 1
  14    8   36 1
  15    8   37 1
  16    9   10 1
  17    9   38 1
  18    9   39 1
  19   10   11 1
  20   10   12 1
  21   10   40 1
  22   11   41 1
  23   11   42 1
  24   11   43 1
  25   12   44 1
  26   12   45 1
  27   12   46 1
  28   13   14 3
  29   15   16 1
  30   15   47 1
  31   15   48 1
  32   16   17 1
  33   16   21 1
  34   17   18 1
  35   17   49 1
  36   17   50 1
  37   18   19 1
  38   18   51 1
  39   18   52 1
  40   19   20 1
  41   19   22 1
  42   20   21 1
  43   20   53 1
  44   20   54 1
  45   21   55 1
  46   21   56 1
  47   22   23 ar
  48   22   27 ar
  49   23   24 ar
  50   23   57 1
  51   24   25 ar
  52   24   58 1
  53   25   26 ar
  54   25   28 1
  55   26   27 ar
  56   28   29 ar
  57   28   33 ar
  58   29   30 ar
  59   29   59 1
  60   30   31 ar
  61   30   60 1
  62   31   32 ar
  63   31   61 1
  64   32   33 ar
  65   32   62 1
  66   33   63 1

#	End of record

