#	Name: ASD09740238
#	Creating user name:	WinNT
#	Creation time:	15. 06. 2019 21:23

#	Modifying user name:	WinNT
#	Modification time:	15. 06. 2019 21:23

#	Program:	/corina/corina34_cracker 3.40 0067  02.08.2006

@<TRIPOS>MOLECULE
ASD09740238
  61   64    0    0    0
SMALL
NO_CHARGES


@<TRIPOS>ATOM
   1 C1            -0.0161     1.3381     0.0094 C.2     
   2 O2             0.0021    -0.0041     0.0020 O.3     
   3 N3            -1.1323    -0.4328     0.0113 N.2     
   4 C4            -1.9918     0.5545     0.0253 C.2     
   5 N5            -1.2847     1.7040     0.0293 N.2     
   6 C6            -3.4700     0.4322     0.0397 C.ar    
   7 C7            -4.0663    -0.8282     0.0396 C.ar    
   8 C8            -4.2648     1.5773     0.0593 C.ar    
   9 C9            -5.6382     1.4616     0.0731 C.ar    
  10 C10           -6.2309     0.2040     0.0681 C.ar    
  11 C11           -5.4396    -0.9397     0.0535 C.ar    
  12 C12            1.1580     2.2340     0.0030 C.ar    
  13 C13            0.9813     3.6189     0.0126 C.ar    
  14 N14           -7.6205     0.0891     0.0826 N.3     
  15 C15            2.0785     4.4541     0.0061 C.ar    
  16 C16            3.3595     3.9215    -0.0100 C.ar    
  17 C17            3.5430     2.5397    -0.0192 C.ar    
  18 C18            2.4479     1.6975    -0.0069 C.ar    
  19 O19            4.4374     4.7485    -0.0172 O.3     
  20 C20            4.1772     6.1536    -0.0075 C.3     
  21 C21            4.9136     0.5963    -0.0437 C.3     
  22 O22            4.7999     2.0207    -0.0350 O.3     
  23 C23            5.5026     6.9178    -0.0177 C.3     
  24 C24            6.3920     0.2027    -0.0611 C.3     
  25 C25           -3.2093    -2.0678     0.0237 C.3     
  26 C26           -8.2582     1.4129     0.1020 C.3     
  27 C27           -9.7781     1.2450     0.0371 C.3     
  28 N28          -10.2273     0.4305     1.1748 N.3     
  29 C29           -9.5896    -0.8934     1.1554 C.3     
  30 C30           -8.0697    -0.7255     1.2202 C.3     
  31 C31          -11.6912     0.3094     1.1901 C.3     
  32 H32           -3.8047     2.5544     0.0639 H       
  33 H33           -6.2543     2.3485     0.0883 H       
  34 H34           -5.9019    -1.9157     0.0492 H       
  35 H35           -0.0148     4.0361     0.0248 H       
  36 H36            1.9404     5.5252     0.0133 H       
  37 H37            2.5886     0.6267    -0.0137 H       
  38 H38            3.5964     6.4216    -0.8901 H       
  39 H39            3.6151     6.4128     0.8897 H       
  40 H40            4.4395     0.1885     0.8491 H       
  41 H41            4.4211     0.1979    -0.9308 H       
  42 H42            6.0646     6.6586    -0.9149 H       
  43 H43            5.3041     7.9896    -0.0103 H       
  44 H44            6.0833     6.6498     0.8649 H       
  45 H45            6.8660     0.6105    -0.9539 H       
  46 H46            6.8845     0.6010     0.8259 H       
  47 H47            6.4787    -0.8838    -0.0678 H       
  48 H48           -2.9916    -2.3720     1.0475 H       
  49 H49           -3.7403    -2.8701    -0.4886 H       
  50 H50           -2.2763    -1.8578    -0.4992 H       
  51 H51           -7.9887     1.9329     1.0213 H       
  52 H52           -7.9194     1.9924    -0.7567 H       
  53 H53          -10.2543     2.2245     0.0807 H       
  54 H54          -10.0497     0.7493    -0.8948 H       
  55 H55           -9.9284    -1.4729     2.0141 H       
  56 H56           -9.8591    -1.4134     0.2361 H       
  57 H57           -7.5935    -1.7050     1.1767 H       
  58 H58           -7.7980    -0.2298     2.1522 H       
  59 H59          -12.0263    -0.1641     0.2673 H       
  60 H60          -11.9967    -0.2982     2.0419 H       
  61 H61          -12.1369     1.3007     1.2724 H       
@<TRIPOS>BOND
   1    1    2 1
   2    1   12 1
   3    1    5 2
   4    2    3 1
   5    3    4 2
   6    4    5 1
   7    4    6 1
   8    6    7 ar
   9    6    8 ar
  10    7   25 1
  11    7   11 ar
  12    8    9 ar
  13    8   32 1
  14    9   10 ar
  15    9   33 1
  16   10   11 ar
  17   10   14 1
  18   11   34 1
  19   12   13 ar
  20   12   18 ar
  21   13   15 ar
  22   13   35 1
  23   14   26 1
  24   14   30 1
  25   15   16 ar
  26   15   36 1
  27   16   17 ar
  28   16   19 1
  29   17   18 ar
  30   17   22 1
  31   18   37 1
  32   19   20 1
  33   20   23 1
  34   20   38 1
  35   20   39 1
  36   21   22 1
  37   21   24 1
  38   21   40 1
  39   21   41 1
  40   23   42 1
  41   23   43 1
  42   23   44 1
  43   24   45 1
  44   24   46 1
  45   24   47 1
  46   25   48 1
  47   25   49 1
  48   25   50 1
  49   26   27 1
  50   26   51 1
  51   26   52 1
  52   27   28 1
  53   27   53 1
  54   27   54 1
  55   28   29 1
  56   28   31 1
  57   29   30 1
  58   29   55 1
  59   29   56 1
  60   30   57 1
  61   30   58 1
  62   31   59 1
  63   31   60 1
  64   31   61 1

#	End of record

