#	Name: ASD00310202
#	Creating user name:	WinNT
#	Creation time:	15. 06. 2019 18:34

#	Modifying user name:	WinNT
#	Modification time:	15. 06. 2019 18:34

#	Program:	/corina/corina34_cracker 3.40 0067  02.08.2006

@<TRIPOS>MOLECULE
ASD00310202
  30   31    0    0    0
SMALL
NO_CHARGES


@<TRIPOS>ATOM
   1 C1             1.9575     1.7810     1.4202 C.3     
   2 O2             3.2685     2.3433     1.5040 O.3     
   3 C3             1.4181     1.9544    -0.0010 C.3     
   4 C4            -0.0409     1.4972    -0.1662 C.3     
   5 C5            -0.4505     2.9280     0.2209 C.3     
   6 C6             0.9234     3.3788    -0.3027 C.3     
   7 C7             2.3467     1.4008    -1.0509 C.ar    
   8 C8             2.5846     0.0354    -1.1170 C.ar    
   9 C9             3.4397    -0.4714    -2.0842 C.ar    
  10 C10            4.0529     0.3848    -2.9800 C.ar    
  11 C11            3.8141     1.7457    -2.9114 C.ar    
  12 C12            2.9570     2.2518    -1.9516 C.ar    
  13 O13            1.9810    -0.8041    -0.2350 O.3     
  14 C14            2.2723    -2.1973    -0.3620 C.3     
  15 Br15           5.2190    -0.3047    -4.2993 Br      
  16 H16            2.0009     0.7199     1.6655 H       
  17 H17            1.2983     2.2898     2.1236 H       
  18 H18            3.6732     2.2690     2.3791 H       
  19 H19           -0.3016     1.2304    -1.1904 H       
  20 H20           -0.3472     0.7439     0.5596 H       
  21 H21           -1.2876     3.3149    -0.3602 H       
  22 H22           -0.5771     3.0707     1.2941 H       
  23 H23            1.3955     4.1445     0.3129 H       
  24 H24            0.9263     3.6264    -1.3642 H       
  25 H25            3.6267    -1.5338    -2.1374 H       
  26 H26            4.2940     2.4133    -3.6116 H       
  27 H27            2.7684     3.3141    -1.9030 H       
  28 H28            3.3427    -2.3579    -0.2336 H       
  29 H29            1.7273    -2.7534     0.4008 H       
  30 H30            1.9689    -2.5433    -1.3501 H       
@<TRIPOS>BOND
   1    1    2 1
   2    1    3 1
   3    1   16 1
   4    1   17 1
   5    2   18 1
   6    3    4 1
   7    3    6 1
   8    3    7 1
   9    4    5 1
  10    4   19 1
  11    4   20 1
  12    5    6 1
  13    5   21 1
  14    5   22 1
  15    6   23 1
  16    6   24 1
  17    7    8 ar
  18    7   12 ar
  19    8    9 ar
  20    8   13 1
  21    9   10 ar
  22    9   25 1
  23   10   11 ar
  24   10   15 1
  25   11   12 ar
  26   11   26 1
  27   12   27 1
  28   13   14 1
  29   14   28 1
  30   14   29 1
  31   14   30 1

#	End of record

