#	Name: ASD05503040
#	Creating user name:	WinNT
#	Creation time:	15. 06. 2019 21:01

#	Modifying user name:	WinNT
#	Modification time:	15. 06. 2019 21:01

#	Program:	/corina/corina34_cracker 3.40 0067  02.08.2006

@<TRIPOS>MOLECULE
ASD05503040
  40   42    0    0    0
SMALL
NO_CHARGES


@<TRIPOS>ATOM
   1 C1            -0.1540     1.3704     0.4111 C.ar    
   2 C2            -0.0960    -0.0093     0.2597 C.ar    
   3 C3             1.1345    -0.6466     0.1848 C.ar    
   4 C4             2.3033     0.0971     0.2614 C.ar    
   5 C5             2.2384     1.4769     0.4128 C.ar    
   6 C6             1.0119     2.1082     0.4871 C.ar    
   7 N7            -1.2765    -0.7553     0.1834 N.am    
   8 C8            -1.3343    -1.8464    -0.6057 C.2     
   9 C9            -2.5396    -2.7019    -0.5967 C.ar    
  10 O10           -0.3952    -2.1269    -1.3248 O.2     
  11 N11            3.5453    -0.5413     0.1867 N.am    
  12 C12            4.5801     0.0673    -0.4259 C.2     
  13 C13            5.8620    -0.6475    -0.5961 C.ar    
  14 O14            4.4587     1.2044    -0.8385 O.2     
  15 C15            6.0049    -1.9532    -0.1237 C.ar    
  16 C16            7.2044    -2.6148    -0.2858 C.ar    
  17 C17            8.2652    -1.9876    -0.9151 C.ar    
  18 C18            8.1315    -0.6938    -1.3860 C.ar    
  19 C19            6.9349    -0.0216    -1.2358 C.ar    
  20 Br20           6.7537     1.7469    -1.8801 Br      
  21 C21           -2.6028    -3.8327    -1.4128 C.ar    
  22 C22           -3.7305    -4.6272    -1.3992 C.ar    
  23 C23           -4.7974    -4.3053    -0.5792 C.ar    
  24 C24           -4.7415    -3.1857     0.2318 C.ar    
  25 C25           -3.6174    -2.3859     0.2322 C.ar    
  26 H26           -1.1113     1.8674     0.4650 H       
  27 H27            1.1823    -1.7192     0.0675 H       
  28 H28            3.1478     2.0564     0.4725 H       
  29 H29            0.9642     3.1806     0.6051 H       
  30 H30           -2.0536    -0.4875     0.6984 H       
  31 H31            3.6621    -1.4221     0.5759 H       
  32 H32            5.1782    -2.4442     0.3681 H       
  33 H33            7.3160    -3.6250     0.0798 H       
  34 H34            9.2020    -2.5105    -1.0388 H       
  35 H35            8.9635    -0.2102    -1.8763 H       
  36 H36           -1.7708    -4.0848    -2.0536 H       
  37 H37           -3.7808    -5.5021    -2.0304 H       
  38 H38           -5.6779    -4.9307    -0.5724 H       
  39 H39           -5.5780    -2.9397     0.8690 H       
  40 H40           -3.5749    -1.5125     0.8659 H       
@<TRIPOS>BOND
   1    1    2 ar
   2    1    6 ar
   3    1   26 1
   4    2    3 ar
   5    2    7 1
   6    3    4 ar
   7    3   27 1
   8    4    5 ar
   9    4   11 1
  10    5    6 ar
  11    5   28 1
  12    6   29 1
  13    7    8 am
  14    7   30 1
  15    8    9 1
  16    8   10 2
  17    9   21 ar
  18    9   25 ar
  19   11   12 am
  20   11   31 1
  21   12   13 1
  22   12   14 2
  23   13   15 ar
  24   13   19 ar
  25   15   16 ar
  26   15   32 1
  27   16   17 ar
  28   16   33 1
  29   17   18 ar
  30   17   34 1
  31   18   19 ar
  32   18   35 1
  33   19   20 1
  34   21   22 ar
  35   21   36 1
  36   22   23 ar
  37   22   37 1
  38   23   24 ar
  39   23   38 1
  40   24   25 ar
  41   24   39 1
  42   25   40 1

#	End of record

