#	Name: ASD01900521
#	Creating user name:	WinNT
#	Creation time:	15. 06. 2019 19:52

#	Modifying user name:	WinNT
#	Modification time:	15. 06. 2019 19:52

#	Program:	/corina/corina34_cracker 3.40 0067  02.08.2006

@<TRIPOS>MOLECULE
ASD01900521
  29   31    0    0    0
SMALL
NO_CHARGES


@<TRIPOS>ATOM
   1 C1            -0.0152     1.5205    -0.5809 C.ar    
   2 C2             0.0526     0.4092    -1.4341 C.ar    
   3 C3             1.2638    -0.2632    -1.5729 C.ar    
   4 C4             2.3543     0.1972    -0.8584 C.ar    
   5 C5             2.2139     1.3034    -0.0326 C.ar    
   6 N6             1.0612     1.9244     0.0842 N.ar    
   7 O7            -1.1725     0.2334    -1.9670 O.3     
   8 N8            -2.0488     1.2243    -1.4687 N.2     
   9 C9            -1.4061     2.0016    -0.6426 C.2     
  10 N10           -1.9329     3.0871     0.0450 N.pl3   
  11 C11           -3.3027     3.3613    -0.0249 C.ar    
  12 C12           -3.7572     4.6673     0.1015 C.ar    
  13 C13           -5.1144     4.9359     0.0318 C.ar    
  14 C14           -6.0178     3.8982    -0.1644 C.ar    
  15 C15           -5.5629     2.5981    -0.2897 C.ar    
  16 C16           -4.2088     2.3284    -0.2266 C.ar    
  17 O17           -5.5622     6.2135     0.1558 O.3     
  18 C18           -4.5776     7.2296     0.3560 C.3     
  19 F19           -7.3415     4.1596    -0.2324 F       
  20 H20            1.3493    -1.1225    -2.2215 H       
  21 H21            3.3089    -0.3009    -0.9423 H       
  22 H22            3.0673     1.6606     0.5245 H       
  23 H23           -1.3510     3.6550     0.5739 H       
  24 H24           -3.0537     5.4724     0.2543 H       
  25 H25           -6.2665     1.7930    -0.4418 H       
  26 H26           -3.8555     1.3131    -0.3299 H       
  27 H27           -4.0236     7.0233     1.2718 H       
  28 H28           -3.8901     7.2410    -0.4898 H       
  29 H29           -5.0680     8.1995     0.4387 H       
@<TRIPOS>BOND
   1    1    2 ar
   2    1    6 ar
   3    1    9 1
   4    2    3 ar
   5    2    7 1
   6    3    4 ar
   7    3   20 1
   8    4    5 ar
   9    4   21 1
  10    5    6 ar
  11    5   22 1
  12    7    8 1
  13    8    9 2
  14    9   10 1
  15   10   11 1
  16   10   23 1
  17   11   12 ar
  18   11   16 ar
  19   12   13 ar
  20   12   24 1
  21   13   14 ar
  22   13   17 1
  23   14   15 ar
  24   14   19 1
  25   15   16 ar
  26   15   25 1
  27   16   26 1
  28   17   18 1
  29   18   27 1
  30   18   28 1
  31   18   29 1

#	End of record

