#	Name: ASD01948239
#	Creating user name:	WinNT
#	Creation time:	15. 06. 2019 20:14

#	Modifying user name:	WinNT
#	Modification time:	15. 06. 2019 20:14

#	Program:	/corina/corina34_cracker 3.40 0067  02.08.2006

@<TRIPOS>MOLECULE
ASD01948239
  32   34    0    0    0
SMALL
NO_CHARGES


@<TRIPOS>ATOM
   1 C1            -0.0167     1.3797     0.0096 C.ar    
   2 C2             0.0021    -0.0041     0.0020 C.ar    
   3 C3             1.2076    -0.6821    -0.0131 C.ar    
   4 C4             2.3976     0.0201    -0.0202 C.ar    
   5 C5             2.3837     1.4076    -0.0126 C.ar    
   6 C6             1.1707     2.0879     0.0021 C.ar    
   7 C7             4.0446     2.4180    -2.5180 C.ar    
   8 C8             4.2835     2.5452    -1.1560 C.ar    
   9 N9             3.5899     2.1223    -0.0194 N.am    
  10 C10            4.9366     2.9561    -3.4293 C.ar    
  11 C11            6.0725     3.6239    -2.9851 C.ar    
  12 C12            6.3164     3.7545    -1.6229 C.ar    
  13 C13            5.4220     3.2149    -0.7067 C.ar    
  14 N14            5.3870     3.1789     0.6885 N.am    
  15 C15            4.2774     2.5180     1.0684 C.2     
  16 O16            3.9457     2.3102     2.2208 O.2     
  17 Br17          -1.6237    -0.9699     0.0130 Br      
  18 F18            4.7032     2.8319    -4.7542 F       
  19 F19            1.1528     3.4388     0.0091 F       
  20 F20            2.9450     1.7648    -2.9533 F       
  21 N21            6.9744     4.1669    -3.9137 N.pl3   
  22 O22            7.4287     4.4078    -1.1878 O.3     
  23 C23            7.3108     5.8151    -0.9696 C.3     
  24 H24           -0.9594     1.9066     0.0169 H       
  25 H25            1.2188    -1.7621    -0.0190 H       
  26 H26            3.3381    -0.5107    -0.0313 H       
  27 H27            6.0492     3.5649     1.2829 H       
  28 H28            6.8049     4.0762    -4.8645 H       
  29 H29            7.7670     4.6328    -3.6046 H       
  30 H30            6.5468     6.0030    -0.2151 H       
  31 H31            8.2664     6.2107    -0.6255 H       
  32 H32            7.0291     6.3050    -1.9017 H       
@<TRIPOS>BOND
   1    1    2 ar
   2    1    6 ar
   3    1   24 1
   4    2    3 ar
   5    2   17 1
   6    3    4 ar
   7    3   25 1
   8    4    5 ar
   9    4   26 1
  10    5    6 ar
  11    5    9 1
  12    6   19 1
  13    7    8 ar
  14    7   10 ar
  15    7   20 1
  16    8    9 1
  17    8   13 ar
  18    9   15 am
  19   10   11 ar
  20   10   18 1
  21   11   12 ar
  22   11   21 1
  23   12   13 ar
  24   12   22 1
  25   13   14 1
  26   14   15 am
  27   14   27 1
  28   15   16 2
  29   21   28 1
  30   21   29 1
  31   22   23 1
  32   23   30 1
  33   23   31 1
  34   23   32 1

#	End of record

