#	Name: ASD01910665
#	Creating user name:	WinNT
#	Creation time:	15. 06. 2019 19:56

#	Modifying user name:	WinNT
#	Modification time:	15. 06. 2019 19:56

#	Program:	/corina/corina34_cracker 3.40 0067  02.08.2006

@<TRIPOS>MOLECULE
ASD01910665
  32   34    0    0    0
SMALL
NO_CHARGES


@<TRIPOS>ATOM
   1 C1            -0.0167     1.3812     0.0096 C.ar    
   2 C2             0.0021    -0.0041     0.0020 C.ar    
   3 C3             1.2087    -0.6877    -0.0132 C.ar    
   4 C4             2.3989     0.0071    -0.0203 C.ar    
   5 C5             2.3894     1.4051    -0.0127 C.ar    
   6 C6             1.1686     2.0904     0.0021 C.ar    
   7 C7             3.6227     2.1328    -0.0196 C.1     
   8 C8             4.6338     2.7294    -0.0253 C.1     
   9 C9             5.8671     3.4571    -0.0322 C.ar    
  10 C10            5.8529     4.8572    -0.0245 C.ar    
  11 C11            7.0290     5.5475    -0.0309 C.ar    
  12 C12            8.2464     4.8561    -0.0445 C.ar    
  13 C13            8.2631     3.4610    -0.0525 C.ar    
  14 C14            7.0854     2.7677    -0.0408 C.ar    
  15 C15            7.0400     7.0534    -0.0247 C.3     
  16 C16            8.2398     7.5609     0.7718 C.3     
  17 N17            9.4754     6.9288     0.3174 N.am    
  18 C18            9.5030     5.6320    -0.0489 C.2     
  19 O19           10.5492     5.1074    -0.3785 O.2     
  20 F20            1.1500     3.4412     0.0091 F       
  21 F21           -1.1605    -0.6923     0.0098 F       
  22 H22           -0.9598     1.9075     0.0169 H       
  23 H23            1.2156    -1.7676    -0.0190 H       
  24 H24            3.3372    -0.5275    -0.0314 H       
  25 H25            4.9130     5.3891    -0.0139 H       
  26 H26            9.2038     2.9305    -0.0637 H       
  27 H27            7.0946     1.6878    -0.0469 H       
  28 H28            7.1047     7.4192    -1.0494 H       
  29 H29            6.1208     7.4203     0.4321 H       
  30 H30            8.3225     8.6404     0.6455 H       
  31 H31            8.0898     7.3354     1.8276 H       
  32 H32           10.2913     7.4521     0.2782 H       
@<TRIPOS>BOND
   1    1    2 ar
   2    1    6 ar
   3    1   22 1
   4    2    3 ar
   5    2   21 1
   6    3    4 ar
   7    3   23 1
   8    4    5 ar
   9    4   24 1
  10    5    6 ar
  11    5    7 1
  12    6   20 1
  13    7    8 3
  14    8    9 1
  15    9   10 ar
  16    9   14 ar
  17   10   11 ar
  18   10   25 1
  19   11   12 ar
  20   11   15 1
  21   12   13 ar
  22   12   18 1
  23   13   14 ar
  24   13   26 1
  25   14   27 1
  26   15   16 1
  27   15   28 1
  28   15   29 1
  29   16   17 1
  30   16   30 1
  31   16   31 1
  32   17   18 am
  33   17   32 1
  34   18   19 2

#	End of record

