#	Name: ASD01900094
#	Creating user name:	WinNT
#	Creation time:	15. 06. 2019 19:51

#	Modifying user name:	WinNT
#	Modification time:	15. 06. 2019 19:51

#	Program:	/corina/corina34_cracker 3.40 0067  02.08.2006

@<TRIPOS>MOLECULE
ASD01900094
  35   37    0    0    0
SMALL
NO_CHARGES


@<TRIPOS>ATOM
   1 C1            -0.0162     1.3436     0.0094 C.2     
   2 N2             0.0021    -0.0041     0.0020 N.am    
   3 O3             1.0280     1.9655     0.0028 O.2     
   4 C4             1.2297    -0.6908    -0.0134 C.2     
   5 C5             2.5041    -0.1047    -0.0219 C.2     
   6 N6             3.3967    -1.0610    -0.0358 N.2     
   7 N7             2.7264    -2.2909    -0.0366 N.am    
   8 C8             1.3920    -2.0389    -0.0167 C.2     
   9 S9             3.4354    -3.7873    -0.0523 S.o2    
  10 O10            2.4729    -4.6818    -0.5933 O.2     
  11 O11            4.7315    -3.6114    -0.6077 O.2     
  12 C12           -1.3090     2.0667     0.0195 C.ar    
  13 N13           -2.4461     1.3821     0.0212 N.ar    
  14 C14           -3.6148     1.9854     0.0304 C.ar    
  15 C15           -3.7017     3.3682     0.0384 C.ar    
  16 C16           -2.5384     4.1223     0.0370 C.ar    
  17 C17           -1.3212     3.4599     0.0329 C.ar    
  18 C18            3.6743    -4.2689     1.6257 C.ar    
  19 C19            4.5444    -3.5561     2.4330 C.ar    
  20 C20            4.7319    -3.9347     3.7514 C.ar    
  21 C21            4.0492    -5.0255     4.2608 C.ar    
  22 C22            3.1794    -5.7371     3.4513 C.ar    
  23 C23            2.9888    -5.3548     2.1371 C.ar    
  24 F24            5.2105    -2.4917     1.9344 F       
  25 F25            4.2316    -5.3964     5.5470 F       
  26 H26           -0.8313    -0.5005     0.0073 H       
  27 H27            2.7128     0.9549    -0.0181 H       
  28 H28            0.6032    -2.7766    -0.0080 H       
  29 H29           -4.5190     1.3949     0.0315 H       
  30 H30           -4.6663     3.8538     0.0452 H       
  31 H31           -2.5798     5.2015     0.0430 H       
  32 H32           -0.3952     4.0157     0.0317 H       
  33 H33            5.4107    -3.3795     4.3818 H       
  34 H34            2.6469    -6.5886     3.8485 H       
  35 H35            2.3103    -5.9103     1.5066 H       
@<TRIPOS>BOND
   1    1    2 am
   2    1    3 2
   3    1   12 1
   4    2    4 1
   5    2   26 1
   6    4    5 1
   7    4    8 2
   8    5    6 2
   9    5   27 1
  10    6    7 1
  11    7    8 1
  12    7    9 am
  13    8   28 1
  14    9   10 2
  15    9   11 2
  16    9   18 1
  17   12   13 ar
  18   12   17 ar
  19   13   14 ar
  20   14   15 ar
  21   14   29 1
  22   15   16 ar
  23   15   30 1
  24   16   17 ar
  25   16   31 1
  26   17   32 1
  27   18   19 ar
  28   18   23 ar
  29   19   20 ar
  30   19   24 1
  31   20   21 ar
  32   20   33 1
  33   21   22 ar
  34   21   25 1
  35   22   23 ar
  36   22   34 1
  37   23   35 1

#	End of record

