#	Name: ASD06170070
#	Creating user name:	WinNT
#	Creation time:	15. 06. 2019 21:05

#	Modifying user name:	WinNT
#	Modification time:	15. 06. 2019 21:05

#	Program:	/corina/corina34_cracker 3.40 0067  02.08.2006

@<TRIPOS>MOLECULE
ASD06170070
  69   73    0    0    0
SMALL
NO_CHARGES


@<TRIPOS>ATOM
   1 N1             0.1660     1.6217    -0.4542 N.pl3   
   2 N2             0.1082     0.3804     0.1863 N.am    
   3 C3             1.3677    -0.0301     0.4421 C.2     
   4 C4             2.2619     1.0200    -0.0707 C.2     
   5 C5             1.4493     2.0004    -0.6060 C.2     
   6 C6             3.7288     1.0251    -0.0223 C.2     
   7 O7             4.3496     1.9633    -0.4861 O.2     
   8 N8             4.3883    -0.0094     0.5357 N.am    
   9 C9            -1.0597    -0.3185     0.5087 C.ar    
  10 C10           -2.0583    -0.4814    -0.4428 C.ar    
  11 C11           -3.2100    -1.1725    -0.1214 C.ar    
  12 C12           -3.3699    -1.7015     1.1462 C.ar    
  13 C13           -2.3777    -1.5406     2.0959 C.ar    
  14 C14           -1.2209    -0.8560     1.7791 C.ar    
  15 O15            1.6991    -1.0653     0.9893 O.2     
  16 C16            1.9196     3.2781    -1.2520 C.3     
  17 C17            5.7797    -0.0717     0.4604 C.ar    
  18 C18            6.5087     1.0902     0.2323 C.ar    
  19 C19            7.8879     1.0171     0.1594 C.ar    
  20 C20            8.4958    -0.2259     0.3185 C.ar    
  21 C21            7.7050    -1.3414     0.5431 C.ar    
  22 N22            6.3918    -1.2350     0.6122 N.ar    
  23 O23            9.8488    -0.3435     0.2538 O.3     
  24 N24           12.0277     0.7631     3.5760 N.ar    
  25 C25           10.7251     0.9227     3.5577 C.ar    
  26 C26            9.9586     0.5620     2.4571 C.ar    
  27 C27           10.5718     0.0181     1.3420 C.ar    
  28 C28           11.9749    -0.1492     1.3727 C.ar    
  29 C29           12.6665    -0.6935     0.2807 C.ar    
  30 C30           14.0180    -0.8419     0.3407 C.ar    
  31 C31           14.7297    -0.4576     1.4808 C.ar    
  32 C32           14.0796     0.0792     2.5689 C.ar    
  33 C33           12.6858     0.2436     2.5329 C.ar    
  34 O34           16.0783    -0.6162     1.5154 O.3     
  35 C35           16.6954    -1.1791     0.3559 C.3     
  36 C36           -0.9970     2.3932    -0.8998 C.3     
  37 C37           -1.4968     3.2716     0.2489 C.3     
  38 C38           -0.3842     4.2293     0.6800 C.3     
  39 C39           -2.7114     4.0774    -0.2165 C.3     
  40 O40           -1.8685     2.4451     1.3537 O.3     
  41 H41            3.8953    -0.7106     0.9898 H       
  42 H42           -1.9344    -0.0679    -1.4328 H       
  43 H43           -3.9869    -1.2995    -0.8608 H       
  44 H44           -4.2716    -2.2411     1.3951 H       
  45 H45           -2.5059    -1.9544     3.0853 H       
  46 H46           -0.4443    -0.7348     2.5199 H       
  47 H47            2.0015     4.0588    -0.4958 H       
  48 H48            2.8939     3.1150    -1.7127 H       
  49 H49            1.2038     3.5845    -2.0147 H       
  50 H50            6.0042     2.0377     0.1132 H       
  51 H51            8.4797     1.9031    -0.0171 H       
  52 H52            8.1694    -2.3086     0.6670 H       
  53 H53           10.2357     1.3458     4.4225 H       
  54 H54            8.8882     0.7051     2.4715 H       
  55 H55           12.1278    -0.9946    -0.6056 H       
  56 H56           14.5467    -1.2618    -0.5022 H       
  57 H57           14.6387     0.3730     3.4450 H       
  58 H58           16.2881    -2.1737     0.1743 H       
  59 H59           16.4974    -0.5424    -0.5063 H       
  60 H60           17.7712    -1.2506     0.5154 H       
  61 H61           -0.7135     3.0237    -1.7425 H       
  62 H62           -1.7896     1.7110    -1.2069 H       
  63 H63           -0.1007     4.8598    -0.1628 H       
  64 H64           -0.7403     4.8551     1.4983 H       
  65 H65            0.4810     3.6553     1.0115 H       
  66 H66           -3.5040     3.3951    -0.5236 H       
  67 H67           -3.0675     4.7032     0.6018 H       
  68 H68           -2.4279     4.7079    -1.0593 H       
  69 H69           -2.5709     1.8117     1.1523 H       
@<TRIPOS>BOND
   1    1    2 1
   2    1    5 1
   3    1   36 1
   4    2    3 am
   5    2    9 1
   6    3    4 1
   7    3   15 2
   8    4    5 2
   9    4    6 1
  10    5   16 1
  11    6    7 2
  12    6    8 am
  13    8   17 1
  14    8   41 1
  15    9   10 ar
  16    9   14 ar
  17   10   11 ar
  18   10   42 1
  19   11   12 ar
  20   11   43 1
  21   12   13 ar
  22   12   44 1
  23   13   14 ar
  24   13   45 1
  25   14   46 1
  26   16   47 1
  27   16   48 1
  28   16   49 1
  29   17   18 ar
  30   17   22 ar
  31   18   19 ar
  32   18   50 1
  33   19   20 ar
  34   19   51 1
  35   20   21 ar
  36   20   23 1
  37   21   22 ar
  38   21   52 1
  39   23   27 1
  40   24   25 ar
  41   24   33 ar
  42   25   26 ar
  43   25   53 1
  44   26   27 ar
  45   26   54 1
  46   27   28 ar
  47   28   29 ar
  48   28   33 ar
  49   29   30 ar
  50   29   55 1
  51   30   31 ar
  52   30   56 1
  53   31   32 ar
  54   31   34 1
  55   32   33 ar
  56   32   57 1
  57   34   35 1
  58   35   58 1
  59   35   59 1
  60   35   60 1
  61   36   37 1
  62   36   61 1
  63   36   62 1
  64   37   38 1
  65   37   39 1
  66   37   40 1
  67   38   63 1
  68   38   64 1
  69   38   65 1
  70   39   66 1
  71   39   67 1
  72   39   68 1
  73   40   69 1

#	End of record

