#	Name: ASD01814349
#	Creating user name:	WinNT
#	Creation time:	15. 06. 2019 19:32

#	Modifying user name:	WinNT
#	Modification time:	15. 06. 2019 19:32

#	Program:	/corina/corina34_cracker 3.40 0067  02.08.2006

@<TRIPOS>MOLECULE
ASD01814349
  62   66    0    0    0
SMALL
NO_CHARGES


@<TRIPOS>ATOM
   1 C1            -0.0168     1.3869     0.0097 C.ar    
   2 C2             0.0021    -0.0041     0.0020 C.ar    
   3 C3             1.1801    -0.6897    -0.0129 C.ar    
   4 C4             2.3948     0.0129    -0.0207 C.ar    
   5 C5             2.3717     1.4290    -0.0129 C.ar    
   6 C6             1.1455     2.1015     0.0024 C.ar    
   7 C7             3.6293    -0.6694    -0.0365 C.ar    
   8 C8             4.8031     0.0063    -0.0446 C.ar    
   9 C9             4.8359     1.4095    -0.0374 C.ar    
  10 C10            3.6406     2.1511    -0.0211 C.ar    
  11 C11            6.1026     2.1526    -0.0470 C.2     
  12 N12            6.0328     3.5041    -0.0399 N.am    
  13 C13            4.8302     4.1313    -0.0241 C.2     
  14 N14            3.6961     3.4935    -0.0158 N.2     
  15 C15            3.6424    -2.1763    -0.0442 C.3     
  16 O16            7.1745     1.5748    -0.0604 O.2     
  17 C17            7.2655     4.2957    -0.0490 C.3     
  18 C18            7.3178     5.1723     1.2039 C.3     
  19 C19            8.6052     5.9990     1.1945 C.3     
  20 C20            8.6317     6.8873    -0.0509 C.3     
  21 C21            8.5794     6.0107    -1.3038 C.3     
  22 C22            7.2920     5.1840    -1.2944 C.3     
  23 O23            7.2930     4.3426     2.3671 O.3     
  24 N24            3.3924    -2.6612    -1.4081 N.3     
  25 C25            3.6306    -4.1075    -1.5046 C.3     
  26 C26            3.1877    -4.6039    -2.8850 C.3     
  27 N27            3.8606    -3.7930    -3.9111 N.am    
  28 C28            3.7816    -2.3283    -3.8029 C.3     
  29 C29            4.2012    -1.9216    -2.3863 C.3     
  30 C30            4.5314    -4.3767    -4.9240 C.2     
  31 O31            4.5859    -5.5860    -4.9979 O.2     
  32 C32            5.2136    -3.5266    -5.9646 C.3     
  33 H33           -0.9630     1.9076     0.0169 H       
  34 H34           -0.9305    -0.5488     0.0083 H       
  35 H35            1.1786    -1.7697    -0.0183 H       
  36 H36            1.1188     3.1811     0.0081 H       
  37 H37            5.7317    -0.5451    -0.0563 H       
  38 H38            4.8132     5.2111    -0.0182 H       
  39 H39            4.6147    -2.5329     0.2957 H       
  40 H40            2.8651    -2.5498     0.6224 H       
  41 H41            8.1264     3.6273    -0.0610 H       
  42 H42            6.4569     5.8406     1.2159 H       
  43 H43            8.6425     6.6235     2.0871 H       
  44 H44            9.4662     5.3306     1.1825 H       
  45 H45            7.7708     7.5557    -0.0389 H       
  46 H46            9.5489     7.4763    -0.0577 H       
  47 H47            8.5983     6.6436    -2.1911 H       
  48 H48            9.4403     5.3423    -1.3159 H       
  49 H49            7.2547     4.5595    -2.1870 H       
  50 H50            6.4311     5.8523    -1.2824 H       
  51 H51            7.3237     4.8324     3.2003 H       
  52 H52            4.6928    -4.3111    -1.3684 H       
  53 H53            3.0593    -4.6226    -0.7323 H       
  54 H54            3.4666    -5.6508    -3.0045 H       
  55 H55            2.1075    -4.4963    -2.9835 H       
  56 H56            4.4532    -1.8708    -4.5293 H       
  57 H57            2.7585    -2.0020    -3.9896 H       
  58 H58            4.0436    -0.8512    -2.2535 H       
  59 H59            5.2554    -2.1556    -2.2379 H       
  60 H60            5.9601    -2.8938    -5.4845 H       
  61 H61            5.7001    -4.1702    -6.6975 H       
  62 H62            4.4742    -2.9009    -6.4645 H       
@<TRIPOS>BOND
   1    1    2 ar
   2    1    6 ar
   3    1   33 1
   4    2    3 ar
   5    2   34 1
   6    3    4 ar
   7    3   35 1
   8    4    5 ar
   9    4    7 ar
  10    5    6 ar
  11    5   10 ar
  12    6   36 1
  13    7    8 ar
  14    7   15 1
  15    8    9 ar
  16    8   37 1
  17    9   10 ar
  18    9   11 1
  19   10   14 1
  20   11   12 am
  21   11   16 2
  22   12   13 1
  23   12   17 1
  24   13   14 2
  25   13   38 1
  26   15   24 1
  27   15   39 1
  28   15   40 1
  29   17   18 1
  30   17   22 1
  31   17   41 1
  32   18   19 1
  33   18   23 1
  34   18   42 1
  35   19   20 1
  36   19   43 1
  37   19   44 1
  38   20   21 1
  39   20   45 1
  40   20   46 1
  41   21   22 1
  42   21   47 1
  43   21   48 1
  44   22   49 1
  45   22   50 1
  46   23   51 1
  47   24   25 1
  48   24   29 1
  49   25   26 1
  50   25   52 1
  51   25   53 1
  52   26   27 1
  53   26   54 1
  54   26   55 1
  55   27   28 1
  56   27   30 am
  57   28   29 1
  58   28   56 1
  59   28   57 1
  60   29   58 1
  61   29   59 1
  62   30   31 2
  63   30   32 1
  64   32   60 1
  65   32   61 1
  66   32   62 1

#	End of record

