#	Name: ASD01911167
#	Creating user name:	WinNT
#	Creation time:	15. 06. 2019 19:57

#	Modifying user name:	WinNT
#	Modification time:	15. 06. 2019 19:57

#	Program:	/corina/corina34_cracker 3.40 0067  02.08.2006

@<TRIPOS>MOLECULE
ASD01911167
  46   49    0    0    0
SMALL
NO_CHARGES


@<TRIPOS>ATOM
   1 C1             1.6474     1.5223    -0.0901 C.ar    
   2 C2             2.1316     0.2239    -0.0572 C.ar    
   3 C3             3.4924    -0.0174    -0.0848 C.ar    
   4 C4             4.3916     1.0357    -0.1463 C.ar    
   5 C5             3.9220     2.3389    -0.1803 C.ar    
   6 C6             2.5345     2.5850    -0.1517 C.ar    
   7 C7             4.5672     3.6673    -0.2444 C.2     
   8 N8             3.6075     4.6099    -0.2522 N.am    
   9 C9             2.3833     4.0546    -0.1997 C.2     
  10 C10            3.8619     6.0515    -0.3099 C.3     
  11 C11            4.0507     6.4712    -1.7450 C.ar    
  12 C12            2.9460     6.7520    -2.5380 C.ar    
  13 C13            3.1236     7.1391    -3.8601 C.ar    
  14 C14            4.3975     7.2436    -4.3824 C.ar    
  15 C15            5.4970     6.9631    -3.5898 C.ar    
  16 C16            5.3231     6.5824    -2.2709 C.ar    
  17 N17            1.6564     6.6448    -2.0064 N.am    
  18 C18            0.6091     6.4086    -2.8212 C.2     
  19 C19           -0.7648     6.4027    -2.2761 C.ar    
  20 C20           -0.9938     6.7681    -0.9487 C.ar    
  21 C21           -2.2788     6.7609    -0.4462 C.ar    
  22 C22           -3.3389     6.3922    -1.2549 C.ar    
  23 C23           -3.1187     6.0283    -2.5718 C.ar    
  24 C24           -1.8398     6.0372    -3.0884 C.ar    
  25 O25            1.3302     4.6594    -0.1934 O.2     
  26 O26            5.7634     3.8732    -0.2835 O.2     
  27 O27            0.7945     6.2003    -4.0045 O.2     
  28 Cl28           7.0972     7.0956    -4.2496 Cl      
  29 C29           -1.6020     5.6411    -4.5228 C.3     
  30 H30            0.5830     1.7047    -0.0724 H       
  31 H31            1.4409    -0.6050    -0.0092 H       
  32 H32            3.8575    -1.0335    -0.0579 H       
  33 H33            5.4538     0.8412    -0.1674 H       
  34 H34            3.0142     6.5875     0.1168 H       
  35 H35            4.7625     6.2845     0.2583 H       
  36 H36            2.2660     7.3577    -4.4792 H       
  37 H37            4.5362     7.5442    -5.4105 H       
  38 H38            6.1827     6.3642    -1.6546 H       
  39 H39            1.5160     6.7405    -1.0514 H       
  40 H40           -0.1669     7.0555    -0.3161 H       
  41 H41           -2.4573     7.0434     0.5807 H       
  42 H42           -4.3428     6.3879    -0.8566 H       
  43 H43           -3.9507     5.7412    -3.1977 H       
  44 H44           -1.5413     6.5363    -5.1417 H       
  45 H45           -0.6675     5.0848    -4.5960 H       
  46 H46           -2.4251     5.0157    -4.8683 H       
@<TRIPOS>BOND
   1    1    2 ar
   2    1    6 ar
   3    1   30 1
   4    2    3 ar
   5    2   31 1
   6    3    4 ar
   7    3   32 1
   8    4    5 ar
   9    4   33 1
  10    5    6 ar
  11    5    7 1
  12    6    9 1
  13    7    8 am
  14    7   26 2
  15    8    9 am
  16    8   10 1
  17    9   25 2
  18   10   11 1
  19   10   34 1
  20   10   35 1
  21   11   12 ar
  22   11   16 ar
  23   12   13 ar
  24   12   17 1
  25   13   14 ar
  26   13   36 1
  27   14   15 ar
  28   14   37 1
  29   15   16 ar
  30   15   28 1
  31   16   38 1
  32   17   18 am
  33   17   39 1
  34   18   19 1
  35   18   27 2
  36   19   20 ar
  37   19   24 ar
  38   20   21 ar
  39   20   40 1
  40   21   22 ar
  41   21   41 1
  42   22   23 ar
  43   22   42 1
  44   23   24 ar
  45   23   43 1
  46   24   29 1
  47   29   44 1
  48   29   45 1
  49   29   46 1

#	End of record

