#	Name: ASD07300837
#	Creating user name:	WinNT
#	Creation time:	15. 06. 2019 21:10

#	Modifying user name:	WinNT
#	Modification time:	15. 06. 2019 21:10

#	Program:	/corina/corina34_cracker 3.40 0067  02.08.2006

@<TRIPOS>MOLECULE
ASD07300837
  47   51    0    0    0
SMALL
NO_CHARGES


@<TRIPOS>ATOM
   1 N1            -0.4221     1.6036     0.4057 N.am    
   2 C2            -0.2466     0.2583     0.4294 C.2     
   3 N3             0.9218    -0.3064     0.3400 N.2     
   4 C4             2.0489     0.4122     0.2162 C.2     
   5 C5             1.9670     1.8132     0.1819 C.2     
   6 C6             0.6440     2.4289     0.2843 C.2     
   7 N7             3.3657     0.0978     0.1059 N.pl3   
   8 N8             4.0954     1.2890     0.0041 N.2     
   9 C9             3.2787     2.3052     0.0481 C.2     
  10 O10            0.5067     3.6392     0.2603 O.2     
  11 C11            3.9266    -1.2555     0.0956 C.3     
  12 C12            4.7119    -1.4748    -1.2011 C.3     
  13 C13            5.3594    -2.8617    -1.1680 C.3     
  14 O14            6.2023    -2.9651    -0.0187 O.3     
  15 C15            5.5142    -2.8157     1.2248 C.3     
  16 C16            4.8729    -1.4269     1.2879 C.3     
  17 C17           -1.4617    -0.6225     0.5660 C.3     
  18 C18           -1.1564    -2.0041     1.1685 C.3     
  19 C19           -0.9019    -2.4875    -0.2690 C.3     
  20 C20           -1.8381    -1.3583    -0.7308 C.3     
  21 C21           -1.3690    -0.6582    -1.9801 C.ar    
  22 C22           -2.2979    -0.1386    -2.8614 C.ar    
  23 C23           -1.8558     0.5038    -4.0081 C.ar    
  24 C24           -0.4901     0.5997    -4.2258 C.ar    
  25 C25            0.3795     0.0557    -3.2992 C.ar    
  26 N26           -0.0767    -0.5436    -2.2169 N.ar    
  27 H27           -1.3156     1.9753     0.4721 H       
  28 H28            3.5609     3.3462    -0.0086 H       
  29 H29            3.1196    -1.9852     0.1611 H       
  30 H30            4.0346    -1.4092    -2.0526 H       
  31 H31            5.4865    -0.7133    -1.2911 H       
  32 H32            4.5824    -3.6245    -1.1188 H       
  33 H33            5.9547    -3.0066    -2.0696 H       
  34 H34            4.7392    -3.5779     1.3053 H       
  35 H35            6.2210    -2.9273     2.0471 H       
  36 H36            5.6508    -0.6644     1.2481 H       
  37 H37            4.3108    -1.3271     2.2164 H       
  38 H38           -2.3012    -0.1149     1.0410 H       
  39 H39           -0.2668    -2.0190     1.7982 H       
  40 H40           -2.0187    -2.4745     1.6411 H       
  41 H41            0.1301    -2.3603    -0.5961 H       
  42 H42           -1.2903    -3.4861    -0.4691 H       
  43 H43           -2.8867    -1.6522    -0.7774 H       
  44 H44           -3.3548    -0.2321    -2.6600 H       
  45 H45           -2.5588     0.9192    -4.7150 H       
  46 H46           -0.1103     1.0929    -5.1083 H       
  47 H47            1.4449     0.1259    -3.4615 H       
@<TRIPOS>BOND
   1    1    2 1
   2    1    6 am
   3    1   27 1
   4    2    3 2
   5    2   17 1
   6    3    4 1
   7    4    5 2
   8    4    7 1
   9    5    6 1
  10    5    9 1
  11    6   10 2
  12    7    8 1
  13    7   11 1
  14    8    9 2
  15    9   28 1
  16   11   12 1
  17   11   16 1
  18   11   29 1
  19   12   13 1
  20   12   30 1
  21   12   31 1
  22   13   14 1
  23   13   32 1
  24   13   33 1
  25   14   15 1
  26   15   16 1
  27   15   34 1
  28   15   35 1
  29   16   36 1
  30   16   37 1
  31   17   18 1
  32   17   20 1
  33   17   38 1
  34   18   19 1
  35   18   39 1
  36   18   40 1
  37   19   20 1
  38   19   41 1
  39   19   42 1
  40   20   21 1
  41   20   43 1
  42   21   22 ar
  43   21   26 ar
  44   22   23 ar
  45   22   44 1
  46   23   24 ar
  47   23   45 1
  48   24   25 ar
  49   24   46 1
  50   25   26 ar
  51   25   47 1

#	End of record

