#	Name: ASD05503004
#	Creating user name:	WinNT
#	Creation time:	15. 06. 2019 21:01

#	Modifying user name:	WinNT
#	Modification time:	15. 06. 2019 21:01

#	Program:	/corina/corina34_cracker 3.40 0067  02.08.2006

@<TRIPOS>MOLECULE
ASD05503004
  39   40    0    0    0
SMALL
NO_CHARGES


@<TRIPOS>ATOM
   1 C1            -0.1503     1.3616     0.4404 C.ar    
   2 C2            -0.0925    -0.0174     0.2840 C.ar    
   3 C3             1.1378    -0.6541     0.2036 C.ar    
   4 C4             2.3067     0.0894     0.2796 C.ar    
   5 C5             2.2420     1.4687     0.4360 C.ar    
   6 C6             1.0157     2.0994     0.5158 C.ar    
   7 N7            -1.2736    -0.7637     0.2082 N.am    
   8 C8            -1.3333    -1.8521    -0.5844 C.2     
   9 C9            -2.5621    -2.7245    -0.5752 C.3     
  10 O10           -0.3981    -2.1295    -1.3051 O.2     
  11 C11           -2.3727    -3.8828    -1.5567 C.3     
  12 C12           -3.6202    -4.7685    -1.5473 C.3     
  13 N13            3.5486    -0.5485     0.1994 N.am    
  14 C14            4.5816     0.0624    -0.4139 C.2     
  15 C15            5.8632    -0.6516    -0.5899 C.ar    
  16 O16            4.4590     1.2008    -0.8223 O.2     
  17 C17            6.0076    -1.9589    -0.1222 C.ar    
  18 C18            7.2069    -2.6197    -0.2896 C.ar    
  19 C19            8.2660    -1.9900    -0.9192 C.ar    
  20 C20            8.1310    -0.6945    -1.3851 C.ar    
  21 C21            6.9344    -0.0234    -1.2303 C.ar    
  22 Br22           6.7511     1.7473    -1.8682 Br      
  23 H23           -1.1075     1.8583     0.4986 H       
  24 H24            1.1853    -1.7263     0.0823 H       
  25 H25            3.1515     2.0481     0.4956 H       
  26 H26            0.9681     3.1715     0.6373 H       
  27 H27           -2.0495    -0.4977     0.7261 H       
  28 H28           -2.7191    -3.1205     0.4282 H       
  29 H29           -3.4289    -2.1343    -0.8725 H       
  30 H30           -2.2158    -3.4868    -2.5600 H       
  31 H31           -1.5059    -4.4729    -1.2593 H       
  32 H32           -4.4870    -4.1783    -1.8447 H       
  33 H33           -3.4853    -5.5936    -2.2466 H       
  34 H34           -3.7771    -5.1644    -0.5440 H       
  35 H35            3.6665    -1.4307     0.5851 H       
  36 H36            5.1823    -2.4517     0.3701 H       
  37 H37            7.3195    -3.6312     0.0719 H       
  38 H38            9.2026    -2.5123    -1.0472 H       
  39 H39            8.9618    -0.2088    -1.8753 H       
@<TRIPOS>BOND
   1    1    2 ar
   2    1    6 ar
   3    1   23 1
   4    2    3 ar
   5    2    7 1
   6    3    4 ar
   7    3   24 1
   8    4    5 ar
   9    4   13 1
  10    5    6 ar
  11    5   25 1
  12    6   26 1
  13    7    8 am
  14    7   27 1
  15    8    9 1
  16    8   10 2
  17    9   11 1
  18    9   28 1
  19    9   29 1
  20   11   12 1
  21   11   30 1
  22   11   31 1
  23   12   32 1
  24   12   33 1
  25   12   34 1
  26   13   14 am
  27   13   35 1
  28   14   15 1
  29   14   16 2
  30   15   17 ar
  31   15   21 ar
  32   17   18 ar
  33   17   36 1
  34   18   19 ar
  35   18   37 1
  36   19   20 ar
  37   19   38 1
  38   20   21 ar
  39   20   39 1
  40   21   22 1

#	End of record

