#	Name: ASD01916698
#	Creating user name:	WinNT
#	Creation time:	15. 06. 2019 20:07

#	Modifying user name:	WinNT
#	Modification time:	15. 06. 2019 20:07

#	Program:	/corina/corina34_cracker 3.40 0067  02.08.2006

@<TRIPOS>MOLECULE
ASD01916698
  31   33    0    0    0
SMALL
NO_CHARGES


@<TRIPOS>ATOM
   1 O1            -0.0161     1.3384     0.0094 O.3     
   2 C2             0.0021    -0.0041     0.0020 C.2     
   3 N3             1.2262    -0.4380    -0.0120 N.2     
   4 C4             2.0701     0.6298    -0.0143 C.ar    
   5 C5             1.2618     1.7770    -0.0004 C.ar    
   6 C6             1.8472     3.0336     0.0007 C.ar    
   7 C7             3.2236     3.1510    -0.0118 C.ar    
   8 C8             4.0260     2.0175    -0.0260 C.ar    
   9 C9             3.4592     0.7625    -0.0269 C.ar    
  10 C10           -1.2228    -0.8820     0.0095 C.3     
  11 C11           -1.6230    -1.1868     1.4544 C.3     
  12 C12           -2.8194    -2.0444     1.4616 C.1     
  13 C13           -3.7736    -2.7283     1.4674 C.1     
  14 C14           -4.9375    -3.5625     1.4745 C.ar    
  15 C15           -5.4882    -3.9723     2.6894 C.ar    
  16 C16           -6.6127    -4.7782     2.6794 C.ar    
  17 C17           -7.1517    -5.1491     1.4551 C.ar    
  18 C18           -6.5551    -4.7070     0.2888 C.ar    
  19 N19           -5.4876    -3.9357     0.3249 N.ar    
  20 F20            3.7927     4.3763    -0.0107 F       
  21 H21            1.2286     3.9188     0.0110 H       
  22 H22            5.1010     2.1209    -0.0364 H       
  23 H23            4.0875    -0.1159    -0.0372 H       
  24 H24           -2.0416    -0.3675    -0.4935 H       
  25 H25           -1.0048    -1.8142    -0.5116 H       
  26 H26           -0.8042    -1.7013     1.9574 H       
  27 H27           -1.8410    -0.2546     1.9754 H       
  28 H28           -5.0427    -3.6652     3.6240 H       
  29 H29           -7.0611    -5.1115     3.6037 H       
  30 H30           -8.0289    -5.7778     1.4140 H       
  31 H31           -6.9723    -4.9946    -0.6649 H       
@<TRIPOS>BOND
   1    1    2 1
   2    1    5 1
   3    2    3 2
   4    2   10 1
   5    3    4 1
   6    4    5 ar
   7    4    9 ar
   8    5    6 ar
   9    6    7 ar
  10    6   21 1
  11    7    8 ar
  12    7   20 1
  13    8    9 ar
  14    8   22 1
  15    9   23 1
  16   10   11 1
  17   10   24 1
  18   10   25 1
  19   11   12 1
  20   11   26 1
  21   11   27 1
  22   12   13 3
  23   13   14 1
  24   14   15 ar
  25   14   19 ar
  26   15   16 ar
  27   15   28 1
  28   16   17 ar
  29   16   29 1
  30   17   18 ar
  31   17   30 1
  32   18   19 ar
  33   18   31 1

#	End of record

