#	Name: ASD01810927
#	Creating user name:	WinNT
#	Creation time:	15. 06. 2019 19:25

#	Modifying user name:	WinNT
#	Modification time:	15. 06. 2019 19:25

#	Program:	/corina/corina34_cracker 3.40 0067  02.08.2006

@<TRIPOS>MOLECULE
ASD01810927
  38   39    0    0    0
SMALL
NO_CHARGES


@<TRIPOS>ATOM
   1 C1             0.0338     1.4703     0.1337 C.2     
   2 C2             0.0271    -0.0054     0.0627 C.ar    
   3 C3             1.2044    -0.6977    -0.2340 C.ar    
   4 C4             1.2001    -2.0766    -0.3003 C.ar    
   5 C5             0.0344    -2.7816    -0.0747 C.ar    
   6 C6            -1.1500    -2.1025     0.2230 C.ar    
   7 C7            -1.1516    -0.7105     0.2972 C.ar    
   8 O8             1.0633     2.0833    -0.0660 O.2     
   9 O9            -1.1030     2.1362     0.4143 O.3     
  10 C10            2.4814     0.0629    -0.4828 C.3     
  11 C11            2.4826     0.6033    -1.9142 C.3     
  12 C12            0.0394    -4.2867    -0.1502 C.3     
  13 C13            0.5880    -4.8350    -1.4781 C.3     
  14 C14            1.2912    -5.9220    -0.6480 C.3     
  15 C15            1.2578    -4.9335     0.5295 C.3     
  16 C16           -2.3956    -2.8578     0.4639 C.2     
  17 N17           -2.6920    -3.2902     1.7055 N.am    
  18 S18           -3.4633    -3.1843    -0.8339 S.2     
  19 C19           -1.0222     3.5850     0.4678 C.3     
  20 H20            2.1128    -2.6065    -0.5300 H       
  21 H21           -2.0632    -0.1807     0.5312 H       
  22 H22            2.5520     0.8937     0.2193 H       
  23 H23            3.3335    -0.6027    -0.3449 H       
  24 H24            3.4062     1.1534    -2.0941 H       
  25 H25            2.4119    -0.2276    -2.6162 H       
  26 H26            1.6305     1.2689    -2.0520 H       
  27 H27           -0.9124    -4.7285     0.1447 H       
  28 H28           -0.1840    -5.2238    -2.1421 H       
  29 H29            1.2764    -4.1552    -1.9801 H       
  30 H30            0.6823    -6.8119    -0.4885 H       
  31 H31            2.2981    -6.1535    -0.9953 H       
  32 H32            2.1294    -4.2806     0.5764 H       
  33 H33            1.0266    -5.4018     1.4863 H       
  34 H34           -2.0870    -3.1053     2.4409 H       
  35 H35           -3.5103    -3.7865     1.8638 H       
  36 H36           -0.3113     3.8810     1.2392 H       
  37 H37           -0.6902     3.9663    -0.4979 H       
  38 H38           -2.0045     3.9953     0.7022 H       
@<TRIPOS>BOND
   1    1    2 1
   2    1    8 2
   3    1    9 1
   4    2    3 ar
   5    2    7 ar
   6    3    4 ar
   7    3   10 1
   8    4    5 ar
   9    4   20 1
  10    5    6 ar
  11    5   12 1
  12    6    7 ar
  13    6   16 1
  14    7   21 1
  15    9   19 1
  16   10   11 1
  17   10   22 1
  18   10   23 1
  19   11   24 1
  20   11   25 1
  21   11   26 1
  22   12   13 1
  23   12   15 1
  24   12   27 1
  25   13   14 1
  26   13   28 1
  27   13   29 1
  28   14   15 1
  29   14   30 1
  30   14   31 1
  31   15   32 1
  32   15   33 1
  33   16   17 am
  34   16   18 2
  35   17   34 1
  36   17   35 1
  37   19   36 1
  38   19   37 1
  39   19   38 1

#	End of record

