#	Name: ASD01001143
#	Creating user name:	WinNT
#	Creation time:	15. 06. 2019 18:55

#	Modifying user name:	WinNT
#	Modification time:	15. 06. 2019 18:55

#	Program:	/corina/corina34_cracker 3.40 0067  02.08.2006

@<TRIPOS>MOLECULE
ASD01001143
  30   31    0    0    0
SMALL
NO_CHARGES


@<TRIPOS>ATOM
   1 C1            -0.0469     1.2716     0.0336 C.2     
   2 N2             0.0429    -0.0723    -0.0142 N.am    
   3 C3             1.3818    -0.6840    -0.0564 C.3     
   4 C4             2.5679     0.2589    -0.0426 C.2     
   5 C5             2.3159     1.5853     0.0072 C.2     
   6 N6             1.0365     2.0583     0.0437 N.am    
   7 C7             3.8933    -0.2327    -0.0800 C.2     
   8 O8             4.8268     0.5415    -0.1798 O.2     
   9 O9             4.1229    -1.5604    -0.0049 O.3     
  10 S10           -1.5972     1.9968     0.0758 S.2     
  11 C11            3.4667     2.5582     0.0226 C.3     
  12 C12            1.5083    -1.6073     1.1279 C.ar    
  13 C13            2.1394    -2.8283     0.9870 C.ar    
  14 C14            2.2555    -3.6776     2.0775 C.ar    
  15 C15            1.7374    -3.2984     3.3075 C.ar    
  16 C16            1.1074    -2.0767     3.4432 C.ar    
  17 C17            0.9979    -1.2294     2.3558 C.ar    
  18 O18            2.8754    -4.8793     1.9413 O.3     
  19 H19           -0.7553    -0.6234    -0.0203 H       
  20 H20            1.4456    -1.2911    -0.9595 H       
  21 H21            0.9044     3.0186     0.0789 H       
  22 H22            5.0591    -1.8002    -0.0384 H       
  23 H23            3.7961     2.7476    -0.9990 H       
  24 H24            3.1452     3.4939     0.4800 H       
  25 H25            4.2910     2.1369     0.5980 H       
  26 H26            2.5416    -3.1213     0.0284 H       
  27 H27            1.8263    -3.9581     4.1580 H       
  28 H28            0.7036    -1.7813     4.4003 H       
  29 H29            0.5092    -0.2725     2.4651 H       
  30 H30            3.8270    -4.8526     2.1113 H       
@<TRIPOS>BOND
   1    1    2 am
   2    1    6 am
   3    1   10 2
   4    2    3 1
   5    2   19 1
   6    3    4 1
   7    3   12 1
   8    3   20 1
   9    4    5 2
  10    4    7 1
  11    5    6 1
  12    5   11 1
  13    6   21 1
  14    7    8 2
  15    7    9 1
  16    9   22 1
  17   11   23 1
  18   11   24 1
  19   11   25 1
  20   12   13 ar
  21   12   17 ar
  22   13   14 ar
  23   13   26 1
  24   14   15 ar
  25   14   18 1
  26   15   16 ar
  27   15   27 1
  28   16   17 ar
  29   16   28 1
  30   17   29 1
  31   18   30 1

#	End of record

