#	Name: ASD01810447
#	Creating user name:	WinNT
#	Creation time:	15. 06. 2019 19:24

#	Modifying user name:	WinNT
#	Modification time:	15. 06. 2019 19:24

#	Program:	/corina/corina34_cracker 3.40 0067  02.08.2006

@<TRIPOS>MOLECULE
ASD01810447
  48   50    0    0    0
SMALL
NO_CHARGES


@<TRIPOS>ATOM
   1 C1            -2.5194    -0.3200    -2.2609 C.1     
   2 C2            -2.1568     0.9971    -1.8315 C.ar    
   3 C3            -0.8298     1.2894    -1.5098 C.ar    
   4 C4            -0.4874     2.5603    -1.0969 C.ar    
   5 C5            -1.4554     3.5442    -1.0007 C.ar    
   6 C6            -2.7723     3.2614    -1.3175 C.ar    
   7 C7            -3.1274     1.9965    -1.7382 C.ar    
   8 N8            -2.8072    -1.3648    -2.6015 N.1     
   9 N9            -1.7806     7.8270    -0.1822 N.am    
  10 C10           -0.9430     7.3069    -1.2397 C.3     
  11 C11           -1.4112     5.8804    -1.6192 C.3     
  12 C12           -1.0738     4.9301    -0.5483 C.3     
  13 C13           -1.7639     5.2124     0.7828 C.3     
  14 C14           -0.9598     6.2269     1.5578 C.3     
  15 C15           -1.4626     7.6486     1.2480 C.3     
  16 C16           -2.8950     8.5074    -0.5163 C.2     
  17 C17           -3.8162     8.9811     0.5388 C.ar    
  18 C18           -3.3193     9.6775     1.6406 C.ar    
  19 C19           -4.1894    10.1189     2.6256 C.ar    
  20 C20           -5.5520     9.8669     2.5131 C.ar    
  21 C21           -6.0439     9.1766     1.4216 C.ar    
  22 C22           -5.1865     8.7380     0.4328 C.ar    
  23 O23           -3.1428     8.7317    -1.6850 O.2     
  24 C24           -6.4957    10.3477     3.5852 C.3     
  25 N25           -3.6969    10.8164     3.7314 N.pl3   
  26 H26           -0.0733     0.5221    -1.5838 H       
  27 H27            0.5386     2.7877    -0.8477 H       
  28 H28           -3.5230     4.0339    -1.2399 H       
  29 H29           -4.1548     1.7784    -1.9898 H       
  30 H30           -1.0145     7.9565    -2.1120 H       
  31 H31            0.0916     7.2706    -0.8985 H       
  32 H32           -2.4905     5.8836    -1.7719 H       
  33 H33           -0.9198     5.5730    -2.5423 H       
  34 H34            0.0042     4.9564    -0.3892 H       
  35 H35           -2.7637     5.6052     0.5980 H       
  36 H36           -1.8360     4.2893     1.3580 H       
  37 H37           -1.0634     6.0314     2.6250 H       
  38 H38            0.0905     6.1460     1.2777 H       
  39 H39           -0.6924     8.3660     1.5315 H       
  40 H40           -2.3590     7.8431     1.8369 H       
  41 H41           -2.2604     9.8719     1.7263 H       
  42 H42           -7.1033     8.9835     1.3398 H       
  43 H43           -5.5755     8.2028    -0.4208 H       
  44 H44           -6.8454    11.3502     3.3384 H       
  45 H45           -7.3478     9.6711     3.6492 H       
  46 H46           -5.9763    10.3697     4.5432 H       
  47 H47           -2.7461    10.9919     3.8101 H       
  48 H48           -4.3057    11.1252     4.4206 H       
@<TRIPOS>BOND
   1    1    2 1
   2    1    8 3
   3    2    3 ar
   4    2    7 ar
   5    3    4 ar
   6    3   26 1
   7    4    5 ar
   8    4   27 1
   9    5    6 ar
  10    5   12 1
  11    6    7 ar
  12    6   28 1
  13    7   29 1
  14    9   10 1
  15    9   15 1
  16    9   16 am
  17   10   11 1
  18   10   30 1
  19   10   31 1
  20   11   12 1
  21   11   32 1
  22   11   33 1
  23   12   13 1
  24   12   34 1
  25   13   14 1
  26   13   35 1
  27   13   36 1
  28   14   15 1
  29   14   37 1
  30   14   38 1
  31   15   39 1
  32   15   40 1
  33   16   17 1
  34   16   23 2
  35   17   18 ar
  36   17   22 ar
  37   18   19 ar
  38   18   41 1
  39   19   20 ar
  40   19   25 1
  41   20   21 ar
  42   20   24 1
  43   21   22 ar
  44   21   42 1
  45   22   43 1
  46   24   44 1
  47   24   45 1
  48   24   46 1
  49   25   47 1
  50   25   48 1

#	End of record

