#	Name: ASD01142006
#	Creating user name:	WinNT
#	Creation time:	15. 06. 2019 19:01

#	Modifying user name:	WinNT
#	Modification time:	15. 06. 2019 19:01

#	Program:	/corina/corina34_cracker 3.40 0067  02.08.2006

@<TRIPOS>MOLECULE
ASD01142006
  42   46    0    0    0
SMALL
NO_CHARGES


@<TRIPOS>ATOM
   1 C1            -0.0168     1.3843     0.0097 C.ar    
   2 C2             0.0021    -0.0041     0.0020 C.ar    
   3 C3             1.2021    -0.6955    -0.0131 C.ar    
   4 C4             2.4194     0.0242    -0.0208 C.ar    
   5 C5             2.3786     1.4375    -0.0129 C.ar    
   6 C6             1.1442     2.1010     0.0024 C.ar    
   7 C7             1.2103    -2.1772    -0.0207 C.ar    
   8 C8             0.4523    -2.9048     0.9018 C.ar    
   9 N9             0.4885    -4.2254     0.8593 N.ar    
  10 C10            1.2245    -4.8552    -0.0349 C.ar    
  11 N11            1.9541    -4.2081    -0.9221 N.ar    
  12 C12            1.9718    -2.8868    -0.9542 C.ar    
  13 N13            3.5936    -0.6184    -0.0348 N.ar    
  14 C14            4.7343     0.0213    -0.0418 C.ar    
  15 C15            4.7908     1.4260    -0.0350 C.ar    
  16 C16            3.5971     2.1601    -0.0206 C.ar    
  17 N17            3.6082     3.5373    -0.0143 N.pl3   
  18 C18            6.1692    -0.4530    -0.0574 C.3     
  19 N19            7.0011     0.7551    -0.0586 N.am    
  20 C20            6.2011     1.8346    -0.0457 C.2     
  21 O21            6.5900     2.9871    -0.0436 O.2     
  22 C22            8.4658     0.7805    -0.0718 C.3     
  23 C23            9.0584     1.5020    -1.2938 C.3     
  24 C24           10.1031     2.0989    -0.3362 C.3     
  25 C25            9.0701     1.9045     0.7863 C.3     
  26 H26           -0.9634     1.9041     0.0169 H       
  27 H27           -0.9293    -0.5508     0.0083 H       
  28 H28            1.1119     3.1805     0.0081 H       
  29 H29           -0.1527    -2.3959     1.6375 H       
  30 H30            1.2302    -5.9352    -0.0407 H       
  31 H31            2.5717    -2.3637    -1.6842 H       
  32 H32            4.4521     4.0155    -0.0198 H       
  33 H33            2.7721     4.0290    -0.0044 H       
  34 H34            6.3762    -1.0493     0.8312 H       
  35 H35            6.3599    -1.0400    -0.9558 H       
  36 H36            8.9078    -0.1983     0.1141 H       
  37 H37            9.4825     0.8264    -2.0365 H       
  38 H38            8.3899     2.2450    -1.7287 H       
  39 H39           10.9938     1.4811    -0.2217 H       
  40 H40           10.3352     3.1443    -0.5397 H       
  41 H41            8.4048     2.7575     0.9200 H       
  42 H42            9.5037     1.5537     1.7228 H       
@<TRIPOS>BOND
   1    1    2 ar
   2    1    6 ar
   3    1   26 1
   4    2    3 ar
   5    2   27 1
   6    3    4 ar
   7    3    7 1
   8    4    5 ar
   9    4   13 ar
  10    5    6 ar
  11    5   16 ar
  12    6   28 1
  13    7    8 ar
  14    7   12 ar
  15    8    9 ar
  16    8   29 1
  17    9   10 ar
  18   10   11 ar
  19   10   30 1
  20   11   12 ar
  21   12   31 1
  22   13   14 ar
  23   14   15 ar
  24   14   18 1
  25   15   16 ar
  26   15   20 1
  27   16   17 1
  28   17   32 1
  29   17   33 1
  30   18   19 1
  31   18   34 1
  32   18   35 1
  33   19   20 am
  34   19   22 1
  35   20   21 2
  36   22   23 1
  37   22   25 1
  38   22   36 1
  39   23   24 1
  40   23   37 1
  41   23   38 1
  42   24   25 1
  43   24   39 1
  44   24   40 1
  45   25   41 1
  46   25   42 1

#	End of record

