#	Name: ASD01812858
#	Creating user name:	WinNT
#	Creation time:	15. 06. 2019 19:29

#	Modifying user name:	WinNT
#	Modification time:	15. 06. 2019 19:29

#	Program:	/corina/corina34_cracker 3.40 0067  02.08.2006

@<TRIPOS>MOLECULE
ASD01812858
  56   60    0    0    0
SMALL
NO_CHARGES


@<TRIPOS>ATOM
   1 N1            -0.0158     1.3146     0.0093 N.ar    
   2 C2             0.0021    -0.0041     0.0020 C.ar    
   3 C3             1.1989    -0.7034    -0.0127 C.ar    
   4 C4             2.3830    -0.0016    -0.0202 C.ar    
   5 C5             2.3451     1.3976    -0.0128 C.ar    
   6 C6             1.0957     2.0332     0.0025 C.ar    
   7 C7             3.8375    -0.3894    -0.0358 C.3     
   8 N8             4.5957     0.8679    -0.0366 N.am    
   9 C9             3.7284     1.8957    -0.0233 C.2     
  10 C10            6.0561     0.9838    -0.0501 C.3     
  11 C11            6.5431     1.0309    -1.4754 C.ar    
  12 C12            6.6748     2.2472    -2.1308 C.ar    
  13 C13            7.1251     2.2473    -3.4393 C.ar    
  14 C14            7.4293     1.0328    -4.0507 C.ar    
  15 N15            7.2896    -0.1087    -3.3890 N.ar    
  16 C16            6.8682    -0.1363    -2.1405 C.ar    
  17 O17            1.0259     3.3855     0.0100 O.3     
  18 O18            4.0434     3.0701    -0.0199 O.2     
  19 C19           -0.2049     3.9605     0.0244 C.ar    
  20 C20           -0.8222     4.2481     1.2371 C.ar    
  21 C21           -2.0718     4.8324     1.2555 C.ar    
  22 C22           -2.7174     5.1354     0.0538 C.ar    
  23 C23           -2.0942     4.8450    -1.1628 C.ar    
  24 C24           -0.8422     4.2655    -1.1736 C.ar    
  25 C25           -4.0147     5.7415     0.0690 C.1     
  26 F26           -0.1975     3.9544     2.3985 F       
  27 C27            8.2476    -0.0916    -6.1778 C.2     
  28 C28            7.9127     1.0158    -5.4529 C.2     
  29 C29            8.1095     2.1397    -6.2799 C.2     
  30 N30            8.5404     1.7192    -7.4393 N.2     
  31 N31            8.6351     0.3230    -7.3996 N.pl3   
  32 C32            9.0801    -0.5389    -8.4975 C.3     
  33 C33           10.5732    -0.8339    -8.3413 C.3     
  34 C34            8.2948    -1.8516    -8.4658 C.3     
  35 F35           -0.2366     3.9896    -2.3493 F       
  36 N36           -5.0439     6.2223     0.0810 N.1     
  37 H37           -0.9309    -0.5480     0.0080 H       
  38 H38            1.2023    -1.7834    -0.0178 H       
  39 H39            4.0795    -0.9725     0.8527 H       
  40 H40            4.0627    -0.9635    -0.9345 H       
  41 H41            6.3529     1.8970     0.4657 H       
  42 H42            6.4936     0.1226     0.4550 H       
  43 H43            6.4309     3.1729    -1.6309 H       
  44 H44            7.2389     3.1758    -3.9792 H       
  45 H45            6.7711    -1.0840    -1.6319 H       
  46 H46           -2.5507     5.0551     2.1976 H       
  47 H47           -2.5904     5.0775    -2.0935 H       
  48 H48            8.2127    -1.1143    -5.8327 H       
  49 H49            7.9344     3.1689    -6.0036 H       
  50 H50            8.9069    -0.0348    -9.4483 H       
  51 H51           10.7464    -1.3380    -7.3905 H       
  52 H52           10.9043    -1.4752    -9.1582 H       
  53 H53           11.1327     0.1013    -8.3639 H       
  54 H54            7.2311    -1.6414    -8.5771 H       
  55 H55            8.6259    -2.4929    -9.2827 H       
  56 H56            8.4680    -2.3557    -7.5150 H       
@<TRIPOS>BOND
   1    1    2 ar
   2    1    6 ar
   3    2    3 ar
   4    2   37 1
   5    3    4 ar
   6    3   38 1
   7    4    7 1
   8    4    5 ar
   9    5    6 ar
  10    5    9 1
  11    6   17 1
  12    7    8 1
  13    7   39 1
  14    7   40 1
  15    8    9 am
  16    8   10 1
  17    9   18 2
  18   10   11 1
  19   10   41 1
  20   10   42 1
  21   11   12 ar
  22   11   16 ar
  23   12   13 ar
  24   12   43 1
  25   13   14 ar
  26   13   44 1
  27   14   15 ar
  28   14   28 1
  29   15   16 ar
  30   16   45 1
  31   17   19 1
  32   19   20 ar
  33   19   24 ar
  34   20   21 ar
  35   20   26 1
  36   21   22 ar
  37   21   46 1
  38   22   23 ar
  39   22   25 1
  40   23   24 ar
  41   23   47 1
  42   24   35 1
  43   25   36 3
  44   27   28 2
  45   27   31 1
  46   27   48 1
  47   28   29 1
  48   29   30 2
  49   29   49 1
  50   30   31 1
  51   31   32 1
  52   32   33 1
  53   32   34 1
  54   32   50 1
  55   33   51 1
  56   33   52 1
  57   33   53 1
  58   34   54 1
  59   34   55 1
  60   34   56 1

#	End of record

