#	Name: ASD01811598
#	Creating user name:	WinNT
#	Creation time:	15. 06. 2019 19:27

#	Modifying user name:	WinNT
#	Modification time:	15. 06. 2019 19:27

#	Program:	/corina/corina34_cracker 3.40 0067  02.08.2006

@<TRIPOS>MOLECULE
ASD01811598
  60   64    0    0    0
SMALL
NO_CHARGES


@<TRIPOS>ATOM
   1 C1            -0.0204     1.4125    -0.1847 C.ar    
   2 C2             0.0168     0.0243    -0.0414 C.ar    
   3 C3            -1.1546    -0.6872     0.1289 C.ar    
   4 C4            -2.3693    -0.0319     0.1592 C.ar    
   5 C5            -2.4207     1.3568     0.0175 C.ar    
   6 C6            -1.2423     2.0808    -0.1498 C.ar    
   7 C7            -3.7226     2.0572     0.0496 C.2     
   8 O8            -4.6796     1.5882    -0.5348 O.2     
   9 N9            -3.8480     3.2156     0.7269 N.am    
  10 C10           -2.7395     3.7296     1.5428 C.3     
  11 C11           -3.2543     3.9993     2.9602 C.3     
  12 C12           -4.4669     4.9302     2.8897 C.3     
  13 C13           -5.5841     4.2557     2.0902 C.3     
  14 C14           -5.0937     3.9917     0.6585 C.3     
  15 C15           -4.9553     5.2251     4.2845 C.ar    
  16 C16           -5.8315     6.2741     4.4999 C.ar    
  17 C17           -4.5299     4.4421     5.3430 C.ar    
  18 C18           -4.9734     4.7062     6.6222 C.ar    
  19 C19           -5.8535     5.7665     6.8476 C.ar    
  20 C20           -6.2829     6.5493     5.7741 C.ar    
  21 C21           -6.3180     6.0464     8.1730 C.1     
  22 N22           -6.6864     6.2684     9.2244 N.1     
  23 C23            1.2354     2.1728    -0.3670 C.2     
  24 C24            2.4193     1.9532     0.2662 C.2     
  25 N25            3.2985     2.8572    -0.1810 N.2     
  26 C26            2.7212     3.6294    -1.0618 C.2     
  27 N27            1.4376     3.2379    -1.2152 N.pl3   
  28 C28            3.3820     4.7693    -1.7932 C.3     
  29 C29            1.3382    -0.6997    -0.0732 C.3     
  30 C30            1.6433    -1.4816     1.2154 C.3     
  31 C31            2.2059    -2.5933     0.3140 C.3     
  32 C32            1.2789    -2.0587    -0.7904 C.3     
  33 F33           -4.1009     6.1256     2.2618 F       
  34 H34           -1.1203    -1.7610     0.2386 H       
  35 H35           -3.2817    -0.5941     0.2924 H       
  36 H36           -1.2764     3.1547    -0.2599 H       
  37 H37           -1.9393     2.9903     1.5792 H       
  38 H38           -2.3644     4.6560     1.1078 H       
  39 H39           -3.5448     3.0582     3.4270 H       
  40 H40           -2.4676     4.4706     3.5494 H       
  41 H41           -5.8527     3.3121     2.5652 H       
  42 H42           -6.4557     4.9095     2.0602 H       
  43 H43           -4.9122     4.9405     0.1536 H       
  44 H44           -5.8473     3.4235     0.1131 H       
  45 H45           -6.1625     6.8790     3.6687 H       
  46 H46           -3.8494     3.6221     5.1671 H       
  47 H47           -4.6409     4.0940     7.4475 H       
  48 H48           -6.9633     7.3711     5.9415 H       
  49 H49            2.6149     1.1852     1.0000 H       
  50 H50            0.7803     3.6365    -1.8066 H       
  51 H51            3.8226     4.4000    -2.7193 H       
  52 H52            2.6388     5.5327    -2.0236 H       
  53 H53            4.1625     5.1998    -1.1658 H       
  54 H54            2.1605    -0.0653    -0.4041 H       
  55 H55            2.3959    -1.0078     1.8457 H       
  56 H56            0.7517    -1.7771     1.7683 H       
  57 H57            3.2660    -2.4778     0.0882 H       
  58 H58            1.9507    -3.5985     0.6496 H       
  59 H59            0.2877    -2.5120    -0.7858 H       
  60 H60            1.7373    -2.0508    -1.7793 H       
@<TRIPOS>BOND
   1    1    2 ar
   2    1   23 1
   3    1    6 ar
   4    2    3 ar
   5    2   29 1
   6    3    4 ar
   7    3   34 1
   8    4    5 ar
   9    4   35 1
  10    5    6 ar
  11    5    7 1
  12    6   36 1
  13    7    8 2
  14    7    9 am
  15    9   10 1
  16    9   14 1
  17   10   11 1
  18   10   37 1
  19   10   38 1
  20   11   12 1
  21   11   39 1
  22   11   40 1
  23   12   13 1
  24   12   15 1
  25   12   33 1
  26   13   14 1
  27   13   41 1
  28   13   42 1
  29   14   43 1
  30   14   44 1
  31   15   16 ar
  32   15   17 ar
  33   16   20 ar
  34   16   45 1
  35   17   18 ar
  36   17   46 1
  37   18   19 ar
  38   18   47 1
  39   19   20 ar
  40   19   21 1
  41   20   48 1
  42   21   22 3
  43   23   24 2
  44   23   27 1
  45   24   25 1
  46   24   49 1
  47   25   26 2
  48   26   27 1
  49   26   28 1
  50   27   50 1
  51   28   51 1
  52   28   52 1
  53   28   53 1
  54   29   30 1
  55   29   32 1
  56   29   54 1
  57   30   31 1
  58   30   55 1
  59   30   56 1
  60   31   32 1
  61   31   57 1
  62   31   58 1
  63   32   59 1
  64   32   60 1

#	End of record

