#	Name: ASD08178048
#	Creating user name:	WinNT
#	Creation time:	15. 06. 2019 21:18

#	Modifying user name:	WinNT
#	Modification time:	15. 06. 2019 21:18

#	Program:	/corina/corina34_cracker 3.40 0067  02.08.2006

@<TRIPOS>MOLECULE
ASD08178048
  61   64    0    0    0
SMALL
NO_CHARGES


@<TRIPOS>ATOM
   1 N1            -0.0155     1.2947     0.0092 N.2     
   2 C2             0.0021    -0.0041     0.0020 C.2     
   3 N3            -1.1168    -0.8300     0.0083 N.am    
   4 N4             1.0945     1.8960     0.0018 N.2     
   5 C5             2.1557     1.1534    -0.0123 C.2     
   6 S6             1.6320    -0.5310    -0.0164 S.3     
   7 C7             3.5816     1.6410    -0.0233 C.3     
   8 C8             4.0782     1.7976     1.4154 C.3     
   9 C9             5.5616     2.1720     1.4050 C.3     
  10 C10            6.0889     2.2066     2.8408 C.3     
  11 C11            7.5501     2.5753     2.8306 C.2     
  12 N12            8.0359     3.7743     2.8950 N.2     
  13 N13            9.2941     3.8758     2.8726 N.2     
  14 C14            9.9862     2.7800     2.7877 C.2     
  15 S15            8.9061     1.4512     2.7364 S.3     
  16 N16           11.3740     2.6985     2.7504 N.am    
  17 C17           12.1167     3.8218     2.8042 C.2     
  18 O18           11.5747     4.9038     2.8852 O.2     
  19 C19           13.6206     3.7336     2.7638 C.3     
  20 C20           -2.3521    -0.2911     0.0235 C.2     
  21 O21           -2.4879     0.9140     0.0317 O.2     
  22 C22           -3.5646    -1.1861     0.0302 C.3     
  23 C23           14.2073     5.1197     2.8379 C.ar    
  24 C24           -5.3964     0.0530    -1.1420 C.ar    
  25 C25           -4.8124    -0.3413     0.0473 C.ar    
  26 C26           14.5041     5.6798     4.0663 C.ar    
  27 C27           -6.5411     0.8278    -1.1263 C.ar    
  28 C28           -7.1017     1.2084     0.0786 C.ar    
  29 C29           -6.5179     0.8138     1.2678 C.ar    
  30 C30           -5.3732     0.0389     1.2522 C.ar    
  31 C31            3.2789     2.8998     2.1136 C.3     
  32 C32           15.0423     6.9513     4.1343 C.ar    
  33 C33           15.2841     7.6624     2.9738 C.ar    
  34 C34           14.9881     7.1019     1.7453 C.ar    
  35 C35           14.4540     5.8287     1.6771 C.ar    
  36 H36           -1.0082    -1.7939     0.0017 H       
  37 H37            4.2083     0.9194    -0.5474 H       
  38 H38            3.6326     2.6036    -0.5321 H       
  39 H39            3.9444     0.8574     1.9503 H       
  40 H40            6.1191     1.4318     0.8310 H       
  41 H41            5.6853     3.1541     0.9487 H       
  42 H42            5.5314     2.9468     3.4148 H       
  43 H43            5.9652     1.2245     3.2971 H       
  44 H44           11.8075     1.8331     2.6856 H       
  45 H45           13.9728     3.1442     3.6103 H       
  46 H46           13.9316     3.2565     1.8344 H       
  47 H47           -3.5605    -1.8102    -0.8634 H       
  48 H48           -3.5430    -1.8204     0.9164 H       
  49 H49           -4.9560    -0.2407    -2.0833 H       
  50 H50           14.3152     5.1242     4.9729 H       
  51 H51           -6.9972     1.1361    -2.0554 H       
  52 H52           -7.9956     1.8144     0.0908 H       
  53 H53           -6.9558     1.1112     2.2092 H       
  54 H54           -4.9169    -0.2692     2.1813 H       
  55 H55            3.4127     3.8400     1.5786 H       
  56 H56            2.2221     2.6331     2.1209 H       
  57 H57            3.6327     3.0114     3.1385 H       
  58 H58           15.2735     7.3892     5.0940 H       
  59 H59           15.7039     8.6561     3.0269 H       
  60 H60           15.1767     7.6576     0.8387 H       
  61 H61           14.2228     5.3908     0.7174 H       
@<TRIPOS>BOND
   1    1    2 2
   2    1    4 1
   3    2    3 1
   4    2    6 1
   5    3   20 am
   6    3   36 1
   7    4    5 2
   8    5    6 1
   9    5    7 1
  10    7    8 1
  11    7   37 1
  12    7   38 1
  13    8    9 1
  14    8   31 1
  15    8   39 1
  16    9   10 1
  17    9   40 1
  18    9   41 1
  19   10   11 1
  20   10   42 1
  21   10   43 1
  22   11   12 2
  23   11   15 1
  24   12   13 1
  25   13   14 2
  26   14   15 1
  27   14   16 1
  28   16   17 am
  29   16   44 1
  30   17   18 2
  31   17   19 1
  32   19   23 1
  33   19   45 1
  34   19   46 1
  35   20   21 2
  36   20   22 1
  37   22   25 1
  38   22   47 1
  39   22   48 1
  40   23   26 ar
  41   23   35 ar
  42   24   25 ar
  43   24   27 ar
  44   24   49 1
  45   25   30 ar
  46   26   32 ar
  47   26   50 1
  48   27   28 ar
  49   27   51 1
  50   28   29 ar
  51   28   52 1
  52   29   30 ar
  53   29   53 1
  54   30   54 1
  55   31   55 1
  56   31   56 1
  57   31   57 1
  58   32   33 ar
  59   32   58 1
  60   33   34 ar
  61   33   59 1
  62   34   35 ar
  63   34   60 1
  64   35   61 1

#	End of record

