#	Name: ASD01870366
#	Creating user name:	WinNT
#	Creation time:	15. 06. 2019 19:39

#	Modifying user name:	WinNT
#	Modification time:	15. 06. 2019 19:39

#	Program:	/corina/corina34_cracker 3.40 0067  02.08.2006

@<TRIPOS>MOLECULE
ASD01870366
  54   58    0    0    0
SMALL
NO_CHARGES


@<TRIPOS>ATOM
   1 N1            -0.0179     1.4666     0.0101 N.am    
   2 C2             0.0021    -0.0041     0.0020 C.3     
   3 C3             1.1293     2.1740     0.0030 C.2     
   4 C4             1.0857     3.6803     0.0115 C.3     
   5 O5             2.1967     1.5983    -0.0103 O.2     
   6 C6             2.4763     4.3407     0.0017 C.3     
   7 N7             1.9076     5.2908    -0.9739 N.am    
   8 C8             0.8907     4.3026    -1.3830 C.3     
   9 S9             2.2664     6.8425    -1.4275 S.o2    
  10 C10            3.4250     6.7442    -2.7514 C.ar    
  11 O11            1.0740     7.3858    -1.9773 O.2     
  12 O12            2.9563     7.4310    -0.3334 O.2     
  13 C13            2.9748     6.6853    -4.0352 C.ar    
  14 C14           -0.8911    -0.5093     1.1401 C.3     
  15 N15           -2.2246     0.0945     1.0166 N.3     
  16 C16           -2.1639     1.5549     1.1634 C.3     
  17 C17           -1.3229     2.1448     0.0200 C.3     
  18 C18           -3.1111    -0.4624     1.9335 C.ar    
  19 C19           -4.4382    -0.0378     1.9944 C.ar    
  20 C20           -2.6971    -1.4639     2.8116 C.ar    
  21 C21           -3.6064    -1.9896     3.7049 C.ar    
  22 N22           -4.8531    -1.5568     3.7352 N.ar    
  23 C23           -5.2847    -0.6150     2.9173 C.ar    
  24 C24            3.8970     6.6070    -5.0909 C.ar    
  25 C25            5.2855     6.5902    -4.8079 C.ar    
  26 C26            5.7110     6.6530    -3.4698 C.ar    
  27 C27            4.7897     6.7335    -2.4712 C.ar    
  28 C28            3.4729     6.5438    -6.4317 C.ar    
  29 C29            4.4268     6.4687    -7.4063 C.ar    
  30 C30            5.7761     6.4564    -7.0593 C.ar    
  31 N31            6.1676     6.5149    -5.8097 N.ar    
  32 H32           -0.3779    -0.3702    -0.9518 H       
  33 H33            1.0222    -0.3573     0.1528 H       
  34 H34            0.4145     4.0817     0.7708 H       
  35 H35            2.7518     4.7987     0.9517 H       
  36 H36            3.2612     3.7060    -0.4094 H       
  37 H37            1.2098     3.6567    -2.2009 H       
  38 H38           -0.0998     4.7302    -1.5387 H       
  39 H39            1.9145     6.6985    -4.2401 H       
  40 H40           -0.9763    -1.5943     1.0813 H       
  41 H41           -0.4526    -0.2298     2.0981 H       
  42 H42           -3.1722     1.9669     1.1215 H       
  43 H43           -1.7077     1.8056     2.1210 H       
  44 H44           -1.1778     3.2123     0.1853 H       
  45 H45           -1.8328     1.9844    -0.9299 H       
  46 H46           -4.7978     0.7326     1.3283 H       
  47 H47           -1.6786    -1.8228     2.7918 H       
  48 H48           -3.2948    -2.7657     4.3883 H       
  49 H49           -6.3128    -0.2892     2.9747 H       
  50 H50            6.7652     6.6413    -3.2351 H       
  51 H51            5.1216     6.7816    -1.4446 H       
  52 H52            2.4226     6.5541    -6.6828 H       
  53 H53            4.1353     6.4186    -8.4451 H       
  54 H54            6.5193     6.3964    -7.8407 H       
@<TRIPOS>BOND
   1    1    2 1
   2    1    3 am
   3    1   17 1
   4    2   14 1
   5    2   32 1
   6    2   33 1
   7    3    4 1
   8    3    5 2
   9    4    6 1
  10    4    8 1
  11    4   34 1
  12    6    7 1
  13    6   35 1
  14    6   36 1
  15    7    8 1
  16    7    9 am
  17    8   37 1
  18    8   38 1
  19    9   10 1
  20    9   11 2
  21    9   12 2
  22   10   13 ar
  23   10   27 ar
  24   13   24 ar
  25   13   39 1
  26   14   15 1
  27   14   40 1
  28   14   41 1
  29   15   16 1
  30   15   18 1
  31   16   17 1
  32   16   42 1
  33   16   43 1
  34   17   44 1
  35   17   45 1
  36   18   19 ar
  37   18   20 ar
  38   19   23 ar
  39   19   46 1
  40   20   21 ar
  41   20   47 1
  42   21   22 ar
  43   21   48 1
  44   22   23 ar
  45   23   49 1
  46   24   25 ar
  47   24   28 ar
  48   25   26 ar
  49   25   31 ar
  50   26   27 ar
  51   26   50 1
  52   27   51 1
  53   28   29 ar
  54   28   52 1
  55   29   30 ar
  56   29   53 1
  57   30   31 ar
  58   30   54 1

#	End of record

