#	Name: ASD01720019
#	Creating user name:	WinNT
#	Creation time:	15. 06. 2019 19:23

#	Modifying user name:	WinNT
#	Modification time:	15. 06. 2019 19:23

#	Program:	/corina/corina34_cracker 3.40 0067  02.08.2006

@<TRIPOS>MOLECULE
ASD01720019
  41   43    0    0    0
SMALL
NO_CHARGES


@<TRIPOS>ATOM
   1 P1            -0.0180     1.4758     0.0102 P.3     
   2 O2             0.0021    -0.0041     0.0020 O.2     
   3 O3             1.4924     2.0330    -0.0013 O.3     
   4 O4            -0.7967     2.0091    -1.2942 O.3     
   5 O5            -0.7716     1.9950     1.3348 O.3     
   6 P6            -0.8355     1.5534    -2.8378 P.3     
   7 O7             0.5284     1.1832    -3.2774 O.2     
   8 O8            -1.8139     0.2849    -2.9985 O.3     
   9 O9            -1.3795     2.7688    -3.7427 O.3     
  10 C10           -0.3850     1.6043     2.6538 C.3     
  11 O11           -2.6517     1.7682     3.5484 O.3     
  12 C12           -1.3055     2.2756     3.6750 C.3     
  13 C13           -0.8769     1.9035     5.1117 C.3     
  14 C14           -2.2118     1.7590     5.8762 C.3     
  15 C15           -3.2890     2.0610     4.8109 C.3     
  16 N16           -5.8057    -0.5038     4.8221 N.2     
  17 C17           -4.6662    -0.0172     4.4207 C.2     
  18 N18           -4.4556     1.1965     5.0059 N.pl3   
  19 C19           -5.5260     1.4581     5.8046 C.2     
  20 N20           -5.8876     2.4891     6.6275 N.pl3   
  21 C21           -7.0484     2.4523     7.3061 C.2     
  22 N22           -7.8854     1.4552     7.2257 N.2     
  23 C23           -7.6313     0.3871     6.4453 C.2     
  24 C24           -6.3824     0.3674     5.6809 C.2     
  25 O25           -8.4216    -0.5408     6.3773 O.2     
  26 O26           -2.2831     2.7071     6.9430 O.3     
  27 O27           -0.0829     2.9452     5.6831 O.3     
  28 H28            1.5557     2.9980     0.0033 H       
  29 H29           -2.7266     0.4555    -2.7283 H       
  30 H30           -1.4295     2.5647    -4.6866 H       
  31 H31           -0.4642     0.5214     2.7499 H       
  32 H32            0.6450     1.9108     2.8364 H       
  33 H33           -1.2939     3.3577     3.5438 H       
  34 H34           -0.3308     0.9602     5.1152 H       
  35 H35           -2.3257     0.7443     6.2575 H       
  36 H36           -3.5817     3.1101     4.8539 H       
  37 H37           -3.9911    -0.5011     3.7305 H       
  38 H38           -5.3003     3.2551     6.7229 H       
  39 H39           -7.2982     3.2853     7.9465 H       
  40 H40           -1.5913     2.6010     7.6103 H       
  41 H41            0.2137     2.7638     6.5854 H       
@<TRIPOS>BOND
   1    1    2 2
   2    1    3 1
   3    1    4 1
   4    1    5 1
   5    3   28 1
   6    4    6 1
   7    5   10 1
   8    6    7 2
   9    6    8 1
  10    6    9 1
  11    8   29 1
  12    9   30 1
  13   10   12 1
  14   10   31 1
  15   10   32 1
  16   11   12 1
  17   11   15 1
  18   12   13 1
  19   12   33 1
  20   13   14 1
  21   13   27 1
  22   13   34 1
  23   14   15 1
  24   14   26 1
  25   14   35 1
  26   15   18 1
  27   15   36 1
  28   16   17 2
  29   16   24 1
  30   17   18 1
  31   17   37 1
  32   18   19 1
  33   19   20 1
  34   19   24 2
  35   20   21 1
  36   20   38 1
  37   21   22 2
  38   21   39 1
  39   22   23 1
  40   23   24 1
  41   23   25 2
  42   26   40 1
  43   27   41 1

#	End of record

