#	Name: ASD05060050
#	Creating user name:	WinNT
#	Creation time:	15. 06. 2019 20:56

#	Modifying user name:	WinNT
#	Modification time:	15. 06. 2019 20:56

#	Program:	/corina/corina34_cracker 3.40 0067  02.08.2006

@<TRIPOS>MOLECULE
ASD05060050
  32   33    0    0    0
SMALL
NO_CHARGES


@<TRIPOS>ATOM
   1 C1            -0.0171     1.3006    -0.0128 C.2     
   2 N2             0.0010    -0.0043    -0.0132 N.2     
   3 C3             1.2736    -0.4349    -0.0248 C.2     
   4 C4             2.0880     0.6897    -0.0320 C.2     
   5 N5             1.2442     1.7715    -0.0242 N.pl3   
   6 C6             1.7229    -1.8431    -0.0286 C.2     
   7 O7             2.9106    -2.1022    -0.0390 O.2     
   8 N8             0.8158    -2.8399    -0.0206 N.am    
   9 C9             1.2359    -4.1685    -0.1369 C.ar    
  10 C10            0.5595    -5.1743     0.5414 C.ar    
  11 C11            2.0670    -6.7976    -0.3674 C.ar    
  12 C12            2.3271    -4.4860    -0.9355 C.ar    
  13 C13            0.9768    -6.4855     0.4240 C.ar    
  14 C14            2.7392    -5.7993    -1.0486 C.ar    
  15 C15            2.5199    -8.2295    -0.4927 C.3     
  16 C16            3.5604     0.7160    -0.0453 C.2     
  17 O17            4.1871    -0.3262    -0.0511 O.2     
  18 N18            4.2134     1.8950    -0.0511 N.am    
  19 N19            5.5791     1.9193    -0.0634 N.3     
  20 H20           -0.9086     1.9102    -0.0088 H       
  21 H21            1.5081     2.7049    -0.0267 H       
  22 H22           -0.1285    -2.6357     0.0658 H       
  23 H23           -0.2916    -4.9311     1.1602 H       
  24 H24            2.8525    -3.7069    -1.4678 H       
  25 H25            0.4513    -7.2681     0.9512 H       
  26 H26            3.5903    -6.0463    -1.6659 H       
  27 H27            2.0065    -8.7008    -1.3308 H       
  28 H28            3.5960    -8.2566    -0.6641 H       
  29 H29            2.2846    -8.7667     0.4261 H       
  30 H30            3.7135     2.7263    -0.0464 H       
  31 H31            5.9429     1.3999    -0.8482 H       
  32 H32            5.9238     2.8676    -0.0664 H       
@<TRIPOS>BOND
   1    1    2 2
   2    1    5 1
   3    1   20 1
   4    2    3 1
   5    3    4 2
   6    3    6 1
   7    4    5 1
   8    4   16 1
   9    5   21 1
  10    6    7 2
  11    6    8 am
  12    8    9 1
  13    8   22 1
  14    9   10 ar
  15    9   12 ar
  16   10   13 ar
  17   10   23 1
  18   11   13 ar
  19   11   14 ar
  20   11   15 1
  21   12   14 ar
  22   12   24 1
  23   13   25 1
  24   14   26 1
  25   15   27 1
  26   15   28 1
  27   15   29 1
  28   16   17 2
  29   16   18 am
  30   18   19 1
  31   18   30 1
  32   19   31 1
  33   19   32 1

#	End of record

