#	Name: ASD02039441
#	Creating user name:	WinNT
#	Creation time:	15. 06. 2019 20:18

#	Modifying user name:	WinNT
#	Modification time:	15. 06. 2019 20:18

#	Program:	/corina/corina34_cracker 3.40 0067  02.08.2006

@<TRIPOS>MOLECULE
ASD02039441
  54   57    0    0    0
SMALL
NO_CHARGES


@<TRIPOS>ATOM
   1 C1             0.0286     1.0832     0.0331 C.ar    
   2 C2             0.2286    -0.2830     0.1191 C.ar    
   3 C3             1.2107     2.0179     0.0463 C.3     
   4 N4             1.7519     2.1399    -1.3096 N.am    
   5 C5             1.3810     3.1721    -2.0929 C.2     
   6 C6             0.3473     4.1141    -1.6296 C.2     
   7 C7            -0.1976     5.1336    -2.3541 C.2     
   8 N8            -0.2408     4.1220    -0.4061 N.2     
   9 C9            -1.1040     5.0953    -0.3603 C.2     
  10 N10           -1.1026     5.7443    -1.5537 N.pl3   
  11 O11            1.8997     3.3259    -3.1821 O.2     
  12 C12           -1.9313     6.8985    -1.9103 C.3     
  13 C13            2.6962     1.1400    -1.8140 C.3     
  14 C14           -0.8502    -1.1478     0.1068 C.ar    
  15 C15           -2.3426     0.7272    -0.0884 C.ar    
  16 C16           -1.2499     1.5922    -0.0705 C.ar    
  17 C17           -3.7183     1.2681    -0.1995 C.ar    
  18 C18           -3.9432     2.6477    -0.1808 C.ar    
  19 C19           -2.1365    -0.6505     0.0083 C.ar    
  20 N20           -4.7601     0.4481    -0.3242 N.ar    
  21 C21           -5.9832     0.9259    -0.4230 C.ar    
  22 N22           -6.2284     2.2208    -0.4036 N.ar    
  23 C23           -5.2454     3.1010    -0.2876 C.ar    
  24 C24           -7.1354    -0.0353    -0.5628 C.3     
  25 F25           -7.8285    -0.1120     0.6500 F       
  26 F26           -3.1905    -1.4956    -0.0041 F       
  27 C27            2.1513     0.5273    -3.1079 C.3     
  28 C28            3.1795    -0.4582    -3.6693 C.3     
  29 O29            4.4175     0.2209    -3.8894 O.3     
  30 C30            4.9982     0.7736    -2.7065 C.3     
  31 C31            4.0430     1.8086    -2.1064 C.3     
  32 F32           -7.9998     0.4156    -1.5662 F       
  33 F33           -6.6476    -1.3019    -0.9020 F       
  34 H34            1.2317    -0.6758     0.1959 H       
  35 H35            0.8942     2.9989     0.4008 H       
  36 H36            1.9794     1.6223     0.7101 H       
  37 H37            0.0465     5.4022    -3.3712 H       
  38 H38           -1.7235     5.3447     0.4885 H       
  39 H39           -1.4043     7.8174    -1.6535 H       
  40 H40           -2.1342     6.8832    -2.9812 H       
  41 H41           -2.8721     6.8538    -1.3616 H       
  42 H42            2.8308     0.3566    -1.0682 H       
  43 H43           -0.6878    -2.2134     0.1739 H       
  44 H44           -1.4031     2.6587    -0.1446 H       
  45 H45           -3.1212     3.3416    -0.0851 H       
  46 H46           -5.4585     4.1596    -0.2729 H       
  47 H47            1.2198     0.0017    -2.8979 H       
  48 H48            1.9686     1.3174    -3.8363 H       
  49 H49            3.3316    -1.2696    -2.9575 H       
  50 H50            2.8155    -0.8653    -4.6126 H       
  51 H51            5.1741    -0.0217    -1.9821 H       
  52 H52            5.9443     1.2538    -2.9561 H       
  53 H53            3.8985     2.6245    -2.8145 H       
  54 H54            4.4644     2.1992    -1.1801 H       
@<TRIPOS>BOND
   1    1    2 ar
   2    1    3 1
   3    1   16 ar
   4    2   14 ar
   5    2   34 1
   6    3    4 1
   7    3   35 1
   8    3   36 1
   9    4    5 am
  10    4   13 1
  11    5    6 1
  12    5   11 2
  13    6    7 2
  14    6    8 1
  15    7   10 1
  16    7   37 1
  17    8    9 2
  18    9   10 1
  19    9   38 1
  20   10   12 1
  21   12   39 1
  22   12   40 1
  23   12   41 1
  24   13   27 1
  25   13   31 1
  26   13   42 1
  27   14   19 ar
  28   14   43 1
  29   15   16 ar
  30   15   17 1
  31   15   19 ar
  32   16   44 1
  33   17   20 ar
  34   17   18 ar
  35   18   23 ar
  36   18   45 1
  37   19   26 1
  38   20   21 ar
  39   21   22 ar
  40   21   24 1
  41   22   23 ar
  42   23   46 1
  43   24   25 1
  44   24   32 1
  45   24   33 1
  46   27   28 1
  47   27   47 1
  48   27   48 1
  49   28   29 1
  50   28   49 1
  51   28   50 1
  52   29   30 1
  53   30   31 1
  54   30   51 1
  55   30   52 1
  56   31   53 1
  57   31   54 1

#	End of record

