#	Name: ASD01001236
#	Creating user name:	WinNT
#	Creation time:	15. 06. 2019 18:55

#	Modifying user name:	WinNT
#	Modification time:	15. 06. 2019 18:55

#	Program:	/corina/corina34_cracker 3.40 0067  02.08.2006

@<TRIPOS>MOLECULE
ASD01001236
  50   54    0    0    0
SMALL
NO_CHARGES


@<TRIPOS>ATOM
   1 C1            -0.0326     1.6412    -0.5510 C.ar    
   2 C2            -0.0596     0.2526    -0.5402 C.ar    
   3 C3             1.1096    -0.4715    -0.4400 C.ar    
   4 C4             2.3281     0.1921    -0.3489 C.ar    
   5 C5             2.3501     1.6002    -0.3603 C.ar    
   6 C6             1.1538     2.3129    -0.4625 C.ar    
   7 N7             3.6336    -0.2359    -0.2411 N.pl3   
   8 C8             4.4721     0.8405    -0.1826 C.2     
   9 C9             3.7564     1.9791    -0.2523 C.2     
  10 C10            5.9795     0.8107    -0.0534 C.3     
  11 N11            6.4704     2.1768    -0.3036 N.am    
  12 C12            5.7644     3.3003     0.3304 C.3     
  13 C13            4.3367     3.3693    -0.2262 C.3     
  14 C14            6.3660     0.3740     1.3361 C.ar    
  15 C15            5.8920    -0.8226     1.8409 C.ar    
  16 C16            6.2445    -1.2259     3.1158 C.ar    
  17 C17            7.0713    -0.4338     3.8882 C.ar    
  18 C18            7.5488     0.7674     3.3837 C.ar    
  19 C19            7.1983     1.1670     2.1025 C.ar    
  20 C20            7.5408     2.3918    -1.0938 C.2     
  21 O21            8.3621     1.5488     4.1419 O.3     
  22 C22            8.3147     1.2489    -1.6145 C.ar    
  23 O23            7.8686     3.5278    -1.3776 O.2     
  24 Cl24          -1.5793    -0.5790    -0.6533 Cl      
  25 C25            8.8721     1.3058    -2.8953 C.ar    
  26 C26            9.5939     0.2382    -3.3779 C.ar    
  27 C27            9.7693    -0.8976    -2.5922 C.ar    
  28 C28            9.2155    -0.9573    -1.3163 C.ar    
  29 C29            8.4971     0.1091    -0.8259 C.ar    
  30 N30           10.4988    -1.9749    -3.0829 N.pl3   
  31 H31           -0.9565     2.1943    -0.6347 H       
  32 H32            1.0789    -1.5510    -0.4319 H       
  33 H33            1.1663     3.3928    -0.4718 H       
  34 H34            3.9151    -1.1637    -0.2109 H       
  35 H35            6.4008     0.1252    -0.7888 H       
  36 H36            5.7285     3.1468     1.4090 H       
  37 H37            6.2873     4.2310     0.1100 H       
  38 H38            4.3584     3.7750    -1.2377 H       
  39 H39            3.7263     4.0079     0.4123 H       
  40 H40            5.2451    -1.4432     1.2387 H       
  41 H41            5.8726    -2.1610     3.5081 H       
  42 H42            7.3458    -0.7489     4.8841 H       
  43 H43            7.5686     2.1015     1.7075 H       
  44 H44            9.3038     1.3569     4.0344 H       
  45 H45            8.7361     2.1864    -3.5054 H       
  46 H46           10.0244     0.2814    -4.3674 H       
  47 H47            9.3530    -1.8399    -0.7093 H       
  48 H48            8.0680     0.0624     0.1641 H       
  49 H49           10.8848    -1.9345    -3.9719 H       
  50 H50           10.6216    -2.7667    -2.5363 H       
@<TRIPOS>BOND
   1    1    2 ar
   2    1    6 ar
   3    1   31 1
   4    2    3 ar
   5    2   24 1
   6    3    4 ar
   7    3   32 1
   8    4    5 ar
   9    4    7 1
  10    5    6 ar
  11    5    9 1
  12    6   33 1
  13    7    8 1
  14    7   34 1
  15    8    9 2
  16    8   10 1
  17    9   13 1
  18   10   11 1
  19   10   14 1
  20   10   35 1
  21   11   12 1
  22   11   20 am
  23   12   13 1
  24   12   36 1
  25   12   37 1
  26   13   38 1
  27   13   39 1
  28   14   15 ar
  29   14   19 ar
  30   15   16 ar
  31   15   40 1
  32   16   17 ar
  33   16   41 1
  34   17   18 ar
  35   17   42 1
  36   18   19 ar
  37   18   21 1
  38   19   43 1
  39   20   22 1
  40   20   23 2
  41   21   44 1
  42   22   25 ar
  43   22   29 ar
  44   25   26 ar
  45   25   45 1
  46   26   27 ar
  47   26   46 1
  48   27   28 ar
  49   27   30 1
  50   28   29 ar
  51   28   47 1
  52   29   48 1
  53   30   49 1
  54   30   50 1

#	End of record

