#	Name: ASD01230681
#	Creating user name:	WinNT
#	Creation time:	15. 06. 2019 19:14

#	Modifying user name:	WinNT
#	Modification time:	15. 06. 2019 19:14

#	Program:	/corina/corina34_cracker 3.40 0067  02.08.2006

@<TRIPOS>MOLECULE
ASD01230681
  46   50    0    0    0
SMALL
NO_CHARGES


@<TRIPOS>ATOM
   1 C1            -0.3132     2.0022     0.5517 C.2     
   2 C2            -0.4674     0.7875     1.1837 C.2     
   3 C3            -1.7539     0.2450     1.3086 C.2     
   4 C4            -2.8233     0.8901     0.8121 C.2     
   5 N5            -2.7258     2.0937     0.1591 N.pl3   
   6 C6            -1.5084     2.7000     0.0318 C.2     
   7 C7            -3.9745     2.6466    -0.3719 C.3     
   8 C8            -3.9796     4.1735    -0.2530 C.3     
   9 S9            -2.5193     4.7859    -1.1514 S.o2    
  10 N10           -1.2948     3.8703    -0.5191 N.am    
  11 C11            1.0313     2.6037     0.4008 C.ar    
  12 C12            1.9947     1.9737    -0.3879 C.ar    
  13 C13            3.2455     2.5370    -0.5265 C.ar    
  14 C14            3.5470     3.7298     0.1177 C.ar    
  15 C15            2.5908     4.3593     0.9037 C.ar    
  16 C16            1.3361     3.8048     1.0423 C.ar    
  17 O17            4.7807     4.2820    -0.0212 O.3     
  18 C18            5.7353     3.9484     0.8876 C.ar    
  19 C19            6.9766     4.5665     0.8537 C.ar    
  20 C20            7.9483     4.2267     1.7719 C.ar    
  21 C21            7.6923     3.2603     2.7410 C.ar    
  22 C22            6.4434     2.6528     2.7721 C.ar    
  23 C23            5.4709     2.9913     1.8581 C.ar    
  24 O24           -2.5784     4.4156    -2.5220 O.2     
  25 O25           -2.2064     6.1152    -0.7586 O.2     
  26 O26            8.5039     2.7680     3.7182 O.3     
  27 C27            7.6985     2.1348     4.7270 C.3     
  28 C28            6.4526     1.6766     3.9326 C.3     
  29 H29            0.3899     0.2612     1.5766 H       
  30 H30           -1.8872    -0.7026     1.8092 H       
  31 H31           -3.7992     0.4432     0.9314 H       
  32 H32           -4.0741     2.3673    -1.4208 H       
  33 H33           -4.8155     2.2394     0.1894 H       
  34 H34           -4.8876     4.5779    -0.7005 H       
  35 H35           -3.9197     4.4646     0.7957 H       
  36 H36            1.7611     1.0459    -0.8888 H       
  37 H37            3.9918     2.0498    -1.1365 H       
  38 H38            2.8289     5.2866     1.4035 H       
  39 H39            0.5929     4.2950     1.6537 H       
  40 H40            7.1833     5.3168     0.1049 H       
  41 H41            8.9124     4.7123     1.7387 H       
  42 H42            4.5064     2.5063     1.8905 H       
  43 H43            8.2194     1.2787     5.1558 H       
  44 H44            7.4208     2.8477     5.5033 H       
  45 H45            5.5489     1.7774     4.5335 H       
  46 H46            6.5712     0.6524     3.5790 H       
@<TRIPOS>BOND
   1    1    2 2
   2    1   11 1
   3    1    6 1
   4    2    3 1
   5    2   29 1
   6    3    4 2
   7    3   30 1
   8    4    5 1
   9    4   31 1
  10    5    6 1
  11    5    7 1
  12    6   10 2
  13    7    8 1
  14    7   32 1
  15    7   33 1
  16    8    9 1
  17    8   34 1
  18    8   35 1
  19    9   10 am
  20    9   24 2
  21    9   25 2
  22   11   12 ar
  23   11   16 ar
  24   12   13 ar
  25   12   36 1
  26   13   14 ar
  27   13   37 1
  28   14   15 ar
  29   14   17 1
  30   15   16 ar
  31   15   38 1
  32   16   39 1
  33   17   18 1
  34   18   19 ar
  35   18   23 ar
  36   19   20 ar
  37   19   40 1
  38   20   21 ar
  39   20   41 1
  40   21   22 ar
  41   21   26 1
  42   22   23 ar
  43   22   28 1
  44   23   42 1
  45   26   27 1
  46   27   28 1
  47   27   43 1
  48   27   44 1
  49   28   45 1
  50   28   46 1

#	End of record

