#	Name: ASD01915478
#	Creating user name:	WinNT
#	Creation time:	15. 06. 2019 20:05

#	Modifying user name:	WinNT
#	Modification time:	15. 06. 2019 20:05

#	Program:	/corina/corina34_cracker 3.40 0067  02.08.2006

@<TRIPOS>MOLECULE
ASD01915478
  50   53    0    0    0
SMALL
NO_CHARGES


@<TRIPOS>ATOM
   1 C1            -0.0167     1.3789     0.0096 C.ar    
   2 C2             0.0021    -0.0041     0.0020 C.ar    
   3 N3             1.1012     2.0811     0.0027 N.ar    
   4 C4             2.2823     1.5011    -0.0116 C.ar    
   5 C5             2.3820     0.1077    -0.0187 C.ar    
   6 C6             1.2206    -0.6644    -0.0124 C.ar    
   7 C7             3.5457     2.3220    -0.0221 C.3     
   8 C8             4.6381     1.6064     0.7686 C.3     
   9 N9             4.7918     0.2248     0.3209 N.am    
  10 C10            3.7212    -0.5159    -0.0315 C.2     
  11 O11            3.8563    -1.6797    -0.3552 O.2     
  12 C12            6.1307    -0.3660     0.2529 C.3     
  13 C13            6.4597    -1.0178     1.5712 C.ar    
  14 C14           -1.2874    -0.7839     0.0098 C.3     
  15 O15           -1.7075    -1.0232    -1.3349 O.3     
  16 C16           -2.8620    -1.7194    -1.5060 C.ar    
  17 C17           -3.3283    -1.9873    -2.7842 C.ar    
  18 C18           -3.5729    -2.1681    -0.4019 C.ar    
  19 C19           -4.7462    -2.8756    -0.5769 C.ar    
  20 C20           -5.2139    -3.1377    -1.8513 C.ar    
  21 C21           -4.5042    -2.6964    -2.9555 C.ar    
  22 F22           -4.9628    -2.9535    -4.2000 F       
  23 C23            6.1366    -2.3451     1.7844 C.ar    
  24 C24            6.4371    -2.9450     2.9920 C.ar    
  25 C25            7.0636    -2.2144     3.9912 C.ar    
  26 C26            7.3868    -0.8827     3.7747 C.ar    
  27 C27            7.0892    -0.2891     2.5633 C.ar    
  28 O28            7.3599    -2.8021     5.1802 O.3     
  29 C29            8.0051    -1.9893     6.1627 C.3     
  30 H30           -0.9654     1.8949     0.0169 H       
  31 H31            1.2692    -1.7433    -0.0181 H       
  32 H32            3.8771     2.4632    -1.0509 H       
  33 H33            3.3495     3.2942     0.4300 H       
  34 H34            5.5822     2.1337     0.6321 H       
  35 H35            4.3760     1.6124     1.8266 H       
  36 H36            6.1579    -1.1142    -0.5392 H       
  37 H37            6.8617     0.4143     0.0409 H       
  38 H38           -1.1331    -1.7362     0.5171 H       
  39 H39           -2.0541    -0.2132     0.5339 H       
  40 H40           -2.7745    -1.6426    -3.6450 H       
  41 H41           -3.2085    -1.9644     0.5942 H       
  42 H42           -5.2988    -3.2249     0.2828 H       
  43 H43           -6.1313    -3.6914    -1.9858 H       
  44 H44            5.6485    -2.9134     1.0064 H       
  45 H45            6.1842    -3.9817     3.1583 H       
  46 H46            7.8746    -0.3118     4.5510 H       
  47 H47            7.3406     0.7476     2.3943 H       
  48 H48            8.9556    -1.6292     5.7690 H       
  49 H49            7.3676    -1.1396     6.4068 H       
  50 H50            8.1842    -2.5793     7.0615 H       
@<TRIPOS>BOND
   1    1    2 ar
   2    1    3 ar
   3    1   30 1
   4    2   14 1
   5    2    6 ar
   6    3    4 ar
   7    4    5 ar
   8    4    7 1
   9    5    6 ar
  10    5   10 1
  11    6   31 1
  12    7    8 1
  13    7   32 1
  14    7   33 1
  15    8    9 1
  16    8   34 1
  17    8   35 1
  18    9   10 am
  19    9   12 1
  20   10   11 2
  21   12   13 1
  22   12   36 1
  23   12   37 1
  24   13   23 ar
  25   13   27 ar
  26   14   15 1
  27   14   38 1
  28   14   39 1
  29   15   16 1
  30   16   17 ar
  31   16   18 ar
  32   17   21 ar
  33   17   40 1
  34   18   19 ar
  35   18   41 1
  36   19   20 ar
  37   19   42 1
  38   20   21 ar
  39   20   43 1
  40   21   22 1
  41   23   24 ar
  42   23   44 1
  43   24   25 ar
  44   24   45 1
  45   25   26 ar
  46   25   28 1
  47   26   27 ar
  48   26   46 1
  49   27   47 1
  50   28   29 1
  51   29   48 1
  52   29   49 1
  53   29   50 1

#	End of record

