#	Name: ASD04882109
#	Creating user name:	WinNT
#	Creation time:	15. 06. 2019 20:54

#	Modifying user name:	WinNT
#	Modification time:	15. 06. 2019 20:54

#	Program:	/corina/corina34_cracker 3.40 0067  02.08.2006

@<TRIPOS>MOLECULE
ASD04882109
  85   89    0    0    0
SMALL
NO_CHARGES


@<TRIPOS>ATOM
   1 N1            -0.3332     1.5727     1.2907 N.2     
   2 C2            -0.4177     0.2798     1.3887 C.2     
   3 O3             0.7006    -0.2744     0.8994 O.3     
   4 C4             1.5101     0.7120     0.4818 C.2     
   5 C5             0.8644     1.8851     0.7254 C.2     
   6 C6             1.3675     3.2391     0.4315 C.2     
   7 O7             2.4619     3.3837    -0.0792 O.2     
   8 N8             0.6148     4.3169     0.7287 N.am    
   9 C9             1.1355     5.6055     0.5511 C.ar    
  10 C10            0.2920     6.6553     0.1759 C.ar    
  11 C11            0.8070     7.9341    -0.0002 C.ar    
  12 C12            2.1499     8.1720     0.1943 C.ar    
  13 C13            2.9985     7.1273     0.5694 C.ar    
  14 C14            2.4820     5.8410     0.7522 C.ar    
  15 N15           -1.0660     6.4193    -0.0222 N.3     
  16 C16           -1.2850     5.5490    -1.1859 C.3     
  17 C17           -2.7798     5.2498    -1.3217 C.3     
  18 N18           -3.5184     6.5122    -1.4654 N.3     
  19 C19           -3.2993     7.3825    -0.3016 C.3     
  20 C20           -1.8045     7.6816    -0.1659 C.3     
  21 C21           -4.8805     6.2754    -1.6640 C.ar    
  22 C22           -5.3177     5.6643    -2.8326 C.ar    
  23 C23           -7.5788     5.8059    -2.0574 C.ar    
  24 C24           -5.8003     6.6451    -0.6913 C.ar    
  25 C25           -6.6650     5.4313    -3.0256 C.ar    
  26 C26           -7.1466     6.4091    -0.8908 C.ar    
  27 C27           -4.3228     5.2566    -3.8886 C.3     
  28 C28            4.4366     7.3823     0.7775 C.2     
  29 N29            4.9326     8.6236     0.6059 N.am    
  30 O30            5.1744     6.4725     1.1040 O.2     
  31 C31            6.3607     8.8769     0.8126 C.3     
  32 C32            6.6590    10.3552     0.5549 C.3     
  33 C33            8.1505    10.6197     0.7708 C.3     
  34 N34            8.4361    12.0352     0.5241 N.am    
  35 C35            8.3897    12.9936     1.4654 C.2     
  36 C36            8.7310    14.3365     0.8581 C.3     
  37 C37            8.5827    14.1126    -0.6647 C.3     
  38 C38            8.8158    12.5881    -0.7813 C.3     
  39 O39            8.1140    12.8088     2.6319 O.2     
  40 C40           -1.5876    -0.4771     1.9625 C.3     
  41 C41            2.8742     0.5509    -0.1381 C.3     
  42 C42           -1.8015    -0.0582     3.4184 C.3     
  43 C43           -2.8460    -0.1625     1.1511 C.3     
  44 H44           -0.2873     4.2005     1.0656 H       
  45 H45            0.1530     8.7431    -0.2905 H       
  46 H46            2.5471     9.1668     0.0563 H       
  47 H47            3.1348     5.0324     1.0464 H       
  48 H48           -0.9312     6.0504    -2.0868 H       
  49 H49           -0.7382     4.6158    -1.0502 H       
  50 H50           -2.9479     4.6281    -2.2011 H       
  51 H51           -3.1277     4.7241    -0.4325 H       
  52 H52           -3.8461     8.3156    -0.4374 H       
  53 H53           -3.6531     6.8810     0.5992 H       
  54 H54           -1.6365     8.3033     0.7136 H       
  55 H55           -1.4566     8.2073    -1.0551 H       
  56 H56           -8.6321     5.6228    -2.2111 H       
  57 H57           -5.4633     7.1164     0.2202 H       
  58 H58           -7.0056     4.9563    -3.9338 H       
  59 H59           -7.8628     6.7004    -0.1368 H       
  60 H60           -4.0436     4.2134    -3.7413 H       
  61 H61           -4.7702     5.3772    -4.8752 H       
  62 H62           -3.4350     5.8845    -3.8130 H       
  63 H63            4.3441     9.3494     0.3455 H       
  64 H64            6.6295     8.6254     1.8386 H       
  65 H65            6.9419     8.2635     0.1240 H       
  66 H66            6.3902    10.6067    -0.4710 H       
  67 H67            6.0779    10.9686     1.2435 H       
  68 H68            8.4193    10.3682     1.7968 H       
  69 H69            8.7316    10.0064     0.0822 H       
  70 H70            8.0320    15.0992     1.2014 H       
  71 H71            9.7550    14.6174     1.1044 H       
  72 H72            7.5833    14.3854    -1.0036 H       
  73 H73            9.3441    14.6643    -1.2161 H       
  74 H74            9.8653    12.3790    -0.9887 H       
  75 H75            8.1850    12.1702    -1.5659 H       
  76 H76           -1.3849    -1.5472     1.9184 H       
  77 H77            3.1208    -0.5088    -0.2033 H       
  78 H78            2.8727     0.9858    -1.1376 H       
  79 H79            3.6157     1.0593     0.4782 H       
  80 H80           -2.0042     1.0119     3.4625 H       
  81 H81           -2.6477    -0.6056     3.8334 H       
  82 H82           -0.9050    -0.2823     3.9964 H       
  83 H83           -3.6922    -0.7100     1.5662 H       
  84 H84           -3.0487     0.9076     1.1952 H       
  85 H85           -2.6936    -0.4610     0.1139 H       
@<TRIPOS>BOND
   1    1    2 2
   2    1    5 1
   3    2    3 1
   4    2   40 1
   5    3    4 1
   6    4    5 2
   7    4   41 1
   8    5    6 1
   9    6    7 2
  10    6    8 am
  11    8    9 1
  12    8   44 1
  13    9   10 ar
  14    9   14 ar
  15   10   11 ar
  16   10   15 1
  17   11   12 ar
  18   11   45 1
  19   12   13 ar
  20   12   46 1
  21   13   14 ar
  22   13   28 1
  23   14   47 1
  24   15   16 1
  25   15   20 1
  26   16   17 1
  27   16   48 1
  28   16   49 1
  29   17   18 1
  30   17   50 1
  31   17   51 1
  32   18   19 1
  33   18   21 1
  34   19   20 1
  35   19   52 1
  36   19   53 1
  37   20   54 1
  38   20   55 1
  39   21   22 ar
  40   21   24 ar
  41   22   25 ar
  42   22   27 1
  43   23   25 ar
  44   23   26 ar
  45   23   56 1
  46   24   26 ar
  47   24   57 1
  48   25   58 1
  49   26   59 1
  50   27   60 1
  51   27   61 1
  52   27   62 1
  53   28   29 am
  54   28   30 2
  55   29   31 1
  56   29   63 1
  57   31   32 1
  58   31   64 1
  59   31   65 1
  60   32   33 1
  61   32   66 1
  62   32   67 1
  63   33   34 1
  64   33   68 1
  65   33   69 1
  66   34   35 am
  67   34   38 1
  68   35   36 1
  69   35   39 2
  70   36   37 1
  71   36   70 1
  72   36   71 1
  73   37   38 1
  74   37   72 1
  75   37   73 1
  76   38   74 1
  77   38   75 1
  78   40   42 1
  79   40   43 1
  80   40   76 1
  81   41   77 1
  82   41   78 1
  83   41   79 1
  84   42   80 1
  85   42   81 1
  86   42   82 1
  87   43   83 1
  88   43   84 1
  89   43   85 1

#	End of record

