#	Name: ASD03110005
#	Creating user name:	WinNT
#	Creation time:	15. 06. 2019 20:33

#	Modifying user name:	WinNT
#	Modification time:	15. 06. 2019 20:33

#	Program:	/corina/corina34_cracker 3.40 0067  02.08.2006

@<TRIPOS>MOLECULE
ASD03110005
  45   46    0    0    0
SMALL
NO_CHARGES


@<TRIPOS>ATOM
   1 O1             0.3356     1.4487     0.0511 O.3     
   2 C2             0.1645     0.0308     0.0022 C.3     
   3 C3            -1.3287    -0.3023    -0.0745 C.3     
   4 O4            -1.8733     0.2201    -1.2879 O.3     
   5 C5             0.7558    -0.5998     1.2657 C.3     
   6 O6             0.5322    -2.0110     1.2416 O.3     
   7 C7            -0.8474    -2.3828     1.2176 C.3     
   8 C8            -0.9649    -3.9083     1.2220 C.3     
   9 O9            -0.4565    -4.4216     2.4549 O.3     
  10 C10           -1.5031    -1.8239    -0.0478 C.3     
  11 O11           -2.8956    -2.1449    -0.0457 O.3     
  12 O12            0.1263    -0.0371     2.4185 O.3     
  13 C13            0.7835    -0.3469     3.6491 C.3     
  14 C14           -0.2332    -0.3184     4.7933 C.3     
  15 O15           -0.8581     0.9657     4.8437 O.3     
  16 C16           -1.2957    -1.3940     4.5587 C.3     
  17 O17           -2.1621    -1.4631     5.6930 O.3     
  18 O18            0.4364    -0.5714     6.0301 O.3     
  19 C19            1.4367     0.3943     6.3602 C.3     
  20 C20            2.5205     0.3944     5.2789 C.3     
  21 O21            3.1535    -0.8860     5.2372 O.3     
  22 C22            1.8762     0.6914     3.9213 C.3     
  23 O23            2.8687     0.6211     2.8956 O.3     
  24 H24            1.2588     1.7319     0.1007 H       
  25 H25            0.6721    -0.3673    -0.8765 H       
  26 H26           -1.8452     0.1403     0.7773 H       
  27 H27           -1.7908     1.1797    -1.3750 H       
  28 H28            1.8271    -0.4021     1.3034 H       
  29 H29           -1.3485    -1.9771     2.0965 H       
  30 H30           -2.0117    -4.1924     1.1143 H       
  31 H31           -0.3896    -4.3194     0.3925 H       
  32 H32           -0.4996    -5.3849     2.5275 H       
  33 H33           -1.0291    -2.2603    -0.9269 H       
  34 H34           -3.3761    -1.8166    -0.8180 H       
  35 H35            1.2304    -1.3389     3.5836 H       
  36 H36           -1.5157     1.0558     5.5469 H       
  37 H37           -1.8775    -1.1427     3.6719 H       
  38 H38           -0.8100    -2.3589     4.4133 H       
  39 H39           -2.8619    -2.1257     5.6136 H       
  40 H40            0.9819     1.3831     6.4192 H       
  41 H41            1.8829     0.1413     7.3220 H       
  42 H42            3.2620     1.1601     5.5066 H       
  43 H43            3.5791    -1.1416     6.0670 H       
  44 H44            1.4361     1.6885     3.9369 H       
  45 H45            3.5928     1.2526     3.0050 H       
@<TRIPOS>BOND
   1    1    2 1
   2    1   24 1
   3    2    3 1
   4    2    5 1
   5    2   25 1
   6    3    4 1
   7    3   10 1
   8    3   26 1
   9    4   27 1
  10    5    6 1
  11    5   12 1
  12    5   28 1
  13    6    7 1
  14    7    8 1
  15    7   10 1
  16    7   29 1
  17    8    9 1
  18    8   30 1
  19    8   31 1
  20    9   32 1
  21   10   11 1
  22   10   33 1
  23   11   34 1
  24   12   13 1
  25   13   14 1
  26   13   22 1
  27   13   35 1
  28   14   15 1
  29   14   16 1
  30   14   18 1
  31   15   36 1
  32   16   17 1
  33   16   37 1
  34   16   38 1
  35   17   39 1
  36   18   19 1
  37   19   20 1
  38   19   40 1
  39   19   41 1
  40   20   21 1
  41   20   22 1
  42   20   42 1
  43   21   43 1
  44   22   23 1
  45   22   44 1
  46   23   45 1

#	End of record

