#	Name: ASD03470033
#	Creating user name:	WinNT
#	Creation time:	15. 06. 2019 20:42

#	Modifying user name:	WinNT
#	Modification time:	15. 06. 2019 20:42

#	Program:	/corina/corina34_cracker 3.40 0067  02.08.2006

@<TRIPOS>MOLECULE
ASD03470033
  39   42    0    0    0
SMALL
NO_CHARGES


@<TRIPOS>ATOM
   1 Cl1            6.2630     6.3956     4.0420 Cl      
   2 C2             4.8659     6.2993     3.0161 C.ar    
   3 C3             4.1534     7.4438     2.7049 C.ar    
   4 C4             3.0421     7.3735     1.8900 C.ar    
   5 C5             2.6295     6.1471     1.3737 C.ar    
   6 C6             3.3533     5.0048     1.6929 C.ar    
   7 C7             4.4643     5.0772     2.5019 C.ar    
   8 C8             2.6659     3.8561     0.9914 C.3     
   9 C9             1.5055     4.5070     0.2691 C.2     
  10 O10            0.6830     3.9468    -0.4243 O.2     
  11 N11            1.5574     5.8218     0.5412 N.am    
  12 C12            0.5990     6.8014     0.0234 C.3     
  13 C13            1.0662     7.2998    -1.3198 C.ar    
  14 C14            2.2920     6.9094    -1.8116 C.ar    
  15 C15            2.7284     7.3646    -3.0447 C.ar    
  16 C16            1.9374     8.2176    -3.7980 C.ar    
  17 C17            0.6965     8.6180    -3.3165 C.ar    
  18 C18            0.2531     8.1545    -2.0705 C.ar    
  19 C19           -1.0623     8.5704    -1.5511 C.2     
  20 O20           -1.1552     9.5639    -0.8577 O.2     
  21 O21           -2.1617     7.8489    -1.8454 O.3     
  22 O22           -0.0977     9.4474    -4.0414 O.3     
  23 C23            0.5317    10.1804    -5.0982 C.3     
  24 C24            1.4157     9.2110    -5.8946 C.3     
  25 O25            2.3906     8.6581    -5.0038 O.3     
  26 H26            4.4685     8.3973     3.1022 H       
  27 H27            2.4907     8.2712     1.6522 H       
  28 H28            5.0202     4.1820     2.7386 H       
  29 H29            3.3424     3.3837     0.2791 H       
  30 H30            2.3039     3.1273     1.7166 H       
  31 H31           -0.3788     6.3317    -0.0833 H       
  32 H32            0.5258     7.6395     0.7166 H       
  33 H33            2.9164     6.2452    -1.2324 H       
  34 H34            3.6914     7.0531    -3.4216 H       
  35 H35           -3.0084     8.1884    -1.5246 H       
  36 H36           -0.2282    10.6073    -5.7528 H       
  37 H37            1.1456    10.9771    -4.6781 H       
  38 H38            0.8025     8.4115    -6.3105 H       
  39 H39            1.9165     9.7478    -6.7003 H       
@<TRIPOS>BOND
   1    1    2 1
   2    2    3 ar
   3    2    7 ar
   4    3    4 ar
   5    3   26 1
   6    4    5 ar
   7    4   27 1
   8    5    6 ar
   9    5   11 1
  10    6    7 ar
  11    6    8 1
  12    7   28 1
  13    8    9 1
  14    8   29 1
  15    8   30 1
  16    9   10 2
  17    9   11 am
  18   11   12 1
  19   12   13 1
  20   12   31 1
  21   12   32 1
  22   13   14 ar
  23   13   18 ar
  24   14   15 ar
  25   14   33 1
  26   15   16 ar
  27   15   34 1
  28   16   17 ar
  29   16   25 1
  30   17   18 ar
  31   17   22 1
  32   18   19 1
  33   19   20 2
  34   19   21 1
  35   21   35 1
  36   22   23 1
  37   23   24 1
  38   23   36 1
  39   23   37 1
  40   24   25 1
  41   24   38 1
  42   24   39 1

#	End of record

