#	Name: ASD02690015
#	Creating user name:	WinNT
#	Creation time:	15. 06. 2019 20:26

#	Modifying user name:	WinNT
#	Modification time:	15. 06. 2019 20:26

#	Program:	/corina/corina34_cracker 3.40 0067  02.08.2006

@<TRIPOS>MOLECULE
ASD02690015
  70   72    0    0    0
SMALL
NO_CHARGES


@<TRIPOS>ATOM
   1 C1             0.8879    -0.4967     1.0646 C.3     
   2 N2             0.0021    -0.0041     0.0020 N.3     
   3 C3            -0.0222     1.4638    -0.0310 C.3     
   4 C4             1.3822     1.9919    -0.3326 C.3     
   5 C5             2.3492     1.5030     0.7493 C.3     
   6 C6             2.3194    -0.0272     0.7958 C.3     
   7 C7             6.0312     2.5645     1.2036 C.ar    
   8 C8             4.7342     2.1311     1.5009 C.ar    
   9 C9             3.7450     1.9700     0.4255 C.2     
  10 C10            6.9534     2.7130     2.2160 C.ar    
  11 C11            6.5991     2.4336     3.5277 C.ar    
  12 C12            5.3150     2.0040     3.8293 C.ar    
  13 C13            4.3832     1.8514     2.8264 C.ar    
  14 C14           -1.3536    -0.5498     0.1516 C.3     
  15 C15           -2.2616     0.0333    -0.9335 C.3     
  16 N16           -3.6118    -0.5280    -0.7974 N.3     
  17 C17           -3.6017    -1.9853    -0.9776 C.3     
  18 C18           -2.7336    -2.6286     0.1062 C.3     
  19 C19           -1.3098    -2.0737     0.0090 C.3     
  20 C20           -4.5448     0.1119    -1.7344 C.3     
  21 C21           -5.8470    -0.6466    -1.7433 C.ar    
  22 C22           -6.8546    -0.2984    -0.8628 C.ar    
  23 C23           -8.0491    -0.9922    -0.8689 C.ar    
  24 C24           -8.2374    -2.0391    -1.7595 C.ar    
  25 C25           -7.2248    -2.3866    -2.6420 C.ar    
  26 C26           -6.0342    -1.6860    -2.6357 C.ar    
  27 O27           -0.7482    -2.4188    -1.2588 O.3     
  28 O28            4.0521     2.2128    -0.7223 O.2     
  29 F29            7.5086     2.5804     4.5159 F       
  30 O30           -9.4115    -2.7234    -1.7672 O.3     
  31 C31           -9.5350    -3.7892    -2.7111 C.3     
  32 H32            0.5527    -0.1079     2.0262 H       
  33 H33            0.8606    -1.5862     1.0841 H       
  34 H34           -0.7104     1.7983    -0.8073 H       
  35 H35           -0.3531     1.8434     0.9357 H       
  36 H36            1.7082     1.6239    -1.3054 H       
  37 H37            1.3670     3.0818    -0.3415 H       
  38 H38            2.0456     1.9028     1.7168 H       
  39 H39            2.9738    -0.3799     1.5929 H       
  40 H40            2.6602    -0.4269    -0.1593 H       
  41 H41            6.3097     2.7779     0.1822 H       
  42 H42            7.9547     3.0474     1.9879 H       
  43 H43            5.0455     1.7881     4.8526 H       
  44 H44            3.3838     1.5169     3.0625 H       
  45 H45           -1.7454    -0.2867     1.1341 H       
  46 H46           -2.3063     1.1171    -0.8260 H       
  47 H47           -1.8613    -0.2178    -1.9157 H       
  48 H48           -4.6196    -2.3677    -0.9021 H       
  49 H49           -3.1950    -2.2270    -1.9596 H       
  50 H50           -3.1475    -2.3988     1.0880 H       
  51 H51           -2.7137    -3.7090    -0.0372 H       
  52 H52           -0.6988    -2.4967     0.8064 H       
  53 H53           -4.7256     1.1403    -1.4218 H       
  54 H54           -4.1146     0.1069    -2.7359 H       
  55 H55           -6.7074     0.5165    -0.1694 H       
  56 H56           -8.8357    -0.7200    -0.1807 H       
  57 H57           -7.3689    -3.2012    -3.3363 H       
  58 H58           -5.2456    -1.9561    -3.3225 H       
  59 H59           -0.6944    -3.3709    -1.4191 H       
  60 H60          -10.5176    -4.2505    -2.6117 H       
  61 H61           -9.4188    -3.3956    -3.7208 H       
  62 H62           -8.7628    -4.5346    -2.5206 H       
  63 C63           14.2541    12.1931     9.8665 C.1     
  64 C64           14.2700    11.0192     9.8601 C.1     
  65 O65           14.2357    13.5479     9.8740 O.3     
  66 O66           14.2884     9.6644     9.8526 O.3     
  67 O67           15.5695    14.1636     9.8645 O.3     
  68 O68           12.9547     9.0487     9.8620 O.3     
  69 H69           15.5563    15.1305     9.8699 H       
  70 H70           12.9678     8.0818     9.8567 H       
@<TRIPOS>BOND
   1    1    2 1
   2    1    6 1
   3    1   32 1
   4    1   33 1
   5    2    3 1
   6    2   14 1
   7    3    4 1
   8    3   34 1
   9    3   35 1
  10    4    5 1
  11    4   36 1
  12    4   37 1
  13    5    6 1
  14    5    9 1
  15    5   38 1
  16    6   39 1
  17    6   40 1
  18    7    8 ar
  19    7   10 ar
  20    7   41 1
  21    8    9 1
  22    8   13 ar
  23    9   28 2
  24   10   11 ar
  25   10   42 1
  26   11   12 ar
  27   11   29 1
  28   12   13 ar
  29   12   43 1
  30   13   44 1
  31   14   15 1
  32   14   19 1
  33   14   45 1
  34   15   16 1
  35   15   46 1
  36   15   47 1
  37   16   17 1
  38   16   20 1
  39   17   18 1
  40   17   48 1
  41   17   49 1
  42   18   19 1
  43   18   50 1
  44   18   51 1
  45   19   27 1
  46   19   52 1
  47   20   21 1
  48   20   53 1
  49   20   54 1
  50   21   22 ar
  51   21   26 ar
  52   22   23 ar
  53   22   55 1
  54   23   24 ar
  55   23   56 1
  56   24   25 ar
  57   24   30 1
  58   25   26 ar
  59   25   57 1
  60   26   58 1
  61   27   59 1
  62   30   31 1
  63   31   60 1
  64   31   61 1
  65   31   62 1
  66   63   64 3
  67   63   65 1
  68   64   66 1
  69   65   67 1
  70   66   68 1
  71   67   69 1
  72   68   70 1

#	End of record

