#	Name: ASD01884949
#	Creating user name:	WinNT
#	Creation time:	15. 06. 2019 19:49

#	Modifying user name:	WinNT
#	Modification time:	15. 06. 2019 19:49

#	Program:	/corina/corina34_cracker 3.40 0067  02.08.2006

@<TRIPOS>MOLECULE
ASD01884949
  47   51    0    0    0
SMALL
NO_CHARGES


@<TRIPOS>ATOM
   1 C1             0.0268     1.4057     0.1654 C.ar    
   2 C2             0.0796     0.0274     0.1643 C.ar    
   3 C3            -1.0946    -0.7139     0.0283 C.ar    
   4 C4            -2.3182    -0.0581    -0.1060 C.ar    
   5 C5            -2.3644     1.3202    -0.1041 C.ar    
   6 C6            -1.1953     2.0555     0.0366 C.ar    
   7 C7            -1.0417    -2.1943     0.0262 C.2     
   8 C8            -1.6387    -2.9161     1.0440 C.2     
   9 C9            -0.3845    -2.8850    -1.0211 C.2     
  10 C10           -0.3376    -4.2302    -1.0213 C.2     
  11 N11           -0.9195    -4.9511    -0.0181 N.pl3   
  12 C12           -1.5713    -4.3205     1.0138 C.2     
  13 Cl13          -2.4581    -2.1008     2.3393 Cl      
  14 C14           -1.0258    -6.2847     0.2352 C.2     
  15 N15           -1.6952    -6.4219     1.3506 N.2     
  16 N16           -2.0233    -5.2694     1.8193 N.2     
  17 C17           -0.4734    -7.3997    -0.6150 C.3     
  18 O18           -1.2446     3.4133     0.0386 O.3     
  19 C19           -1.0503     4.0604    -1.1405 C.ar    
  20 Cl20           1.4867     2.3295     0.3350 Cl      
  21 C21           -0.5307    -8.8181    -0.0443 C.3     
  22 C22           -0.7401     3.3472    -2.2941 C.ar    
  23 C23           -0.5509     4.0512    -3.4725 C.ar    
  24 C24           -0.6755     5.4277    -3.4638 C.ar    
  25 N25           -0.9706     6.0739    -2.3526 N.ar    
  26 C26           -1.1640     5.4416    -1.2123 C.ar    
  27 C27           -1.4991     6.2279     0.0288 C.3     
  28 C28           -0.4708     6.2007    -4.7411 C.3     
  29 C29           -1.4680    -8.4136    -1.1839 C.3     
  30 H30            1.0288    -0.4774     0.2681 H       
  31 H31           -3.2287    -0.6292    -0.2117 H       
  32 H32           -3.3118     1.8282    -0.2081 H       
  33 H33            0.0803    -2.3303    -1.8228 H       
  34 H34            0.1665    -4.7459    -1.8253 H       
  35 H35            0.3874    -7.1390    -1.2308 H       
  36 H36            0.2926    -9.4909    -0.2845 H       
  37 H37           -0.9679    -8.9448     0.9461 H       
  38 H38           -0.6486     2.2713    -2.2716 H       
  39 H39           -0.3086     3.5304    -4.3871 H       
  40 H40           -2.5809     6.3328     0.1114 H       
  41 H41           -1.1170     5.7041     0.9050 H       
  42 H42           -1.0419     7.2155    -0.0322 H       
  43 H43           -1.4226     6.2979    -5.2635 H       
  44 H44           -0.0817     7.1918    -4.5077 H       
  45 H45            0.2398     5.6717    -5.3761 H       
  46 H46           -2.5219    -8.2742    -0.9432 H       
  47 H47           -1.2614    -8.8202    -2.1738 H       
@<TRIPOS>BOND
   1    1    2 ar
   2    1   20 1
   3    1    6 ar
   4    2    3 ar
   5    2   30 1
   6    3    4 ar
   7    3    7 1
   8    4    5 ar
   9    4   31 1
  10    5    6 ar
  11    5   32 1
  12    6   18 1
  13    7    8 2
  14    7    9 1
  15    8   13 1
  16    8   12 1
  17    9   10 2
  18    9   33 1
  19   10   11 1
  20   10   34 1
  21   11   12 1
  22   11   14 1
  23   12   16 2
  24   14   15 2
  25   14   17 1
  26   15   16 1
  27   17   29 1
  28   17   21 1
  29   17   35 1
  30   18   19 1
  31   19   22 ar
  32   19   26 ar
  33   21   29 1
  34   21   36 1
  35   21   37 1
  36   22   23 ar
  37   22   38 1
  38   23   24 ar
  39   23   39 1
  40   24   25 ar
  41   24   28 1
  42   25   26 ar
  43   26   27 1
  44   27   40 1
  45   27   41 1
  46   27   42 1
  47   28   43 1
  48   28   44 1
  49   28   45 1
  50   29   46 1
  51   29   47 1

#	End of record

