#	Name: ASD01813160
#	Creating user name:	WinNT
#	Creation time:	15. 06. 2019 19:29

#	Modifying user name:	WinNT
#	Modification time:	15. 06. 2019 19:29

#	Program:	/corina/corina34_cracker 3.40 0067  02.08.2006

@<TRIPOS>MOLECULE
ASD01813160
  55   58    0    0    0
SMALL
NO_CHARGES


@<TRIPOS>ATOM
   1 C1            -0.0528     1.5155    -0.1258 C.2     
   2 C2            -0.0509     0.1141    -0.1173 C.2     
   3 C3             1.1376    -0.5557    -0.1039 C.2     
   4 C4             2.3397     0.1712    -0.0989 C.2     
   5 N5             2.3083     1.5392    -0.1070 N.am    
   6 C6             1.1146     2.1978    -0.1207 C.2     
   7 C7             3.5624    -0.5148    -0.0850 C.2     
   8 C8             4.7360     0.1817    -0.0796 C.2     
   9 C9             4.6999     1.5884    -0.0885 C.2     
  10 C10            3.4545     2.2492    -0.1020 C.2     
  11 O11            3.4139     3.4680    -0.1102 O.2     
  12 C12            5.9451     2.3594    -0.0825 C.2     
  13 O13            5.9037     3.7077    -0.0911 O.3     
  14 O14            7.0167     1.7838    -0.0697 O.2     
  15 C15            3.5807    -2.0216    -0.0756 C.3     
  16 N16            3.7182    -2.5182    -1.4513 N.3     
  17 C17            3.9771    -3.9636    -1.4656 C.3     
  18 C18            4.2584    -4.4187    -2.8994 C.3     
  19 C19            3.0504    -4.0889    -3.7806 C.3     
  20 C20            2.7724    -2.5848    -3.7100 C.3     
  21 C21            2.5342    -2.1829    -2.2527 C.3     
  22 C22            3.3449    -4.4802    -5.2058 C.ar    
  23 C23            2.6290    -5.5158    -5.8092 C.ar    
  24 C24            2.9080    -5.8716    -7.1305 C.ar    
  25 C25            3.8877    -5.1988    -7.8303 C.ar    
  26 C26            4.5935    -4.1731    -7.2261 C.ar    
  27 C27            4.3186    -3.8120    -5.9192 C.ar    
  28 C28            1.5815    -6.2324    -5.0533 C.2     
  29 O29            1.7286    -6.4480    -3.8669 O.2     
  30 O30            0.4631    -6.6467    -5.6796 O.3     
  31 C31           -0.5234    -7.3443    -4.8743 C.3     
  32 H32           -0.9899     2.0522    -0.1409 H       
  33 H33           -0.9830    -0.4315    -0.1210 H       
  34 H34            1.1540    -1.6355    -0.0969 H       
  35 H35            1.1012     3.2777    -0.1271 H       
  36 H36            5.6812    -0.3406    -0.0682 H       
  37 H37            6.7514     4.1730    -0.0867 H       
  38 H38            4.4222    -2.3710     0.5226 H       
  39 H39            2.6504    -2.3936     0.3536 H       
  40 H40            4.8410    -4.1840    -0.8385 H       
  41 H41            3.1050    -4.4926    -1.0812 H       
  42 H42            5.1386    -3.9002    -3.2797 H       
  43 H43            4.4351    -5.4942    -2.9118 H       
  44 H44            2.1787    -4.6376    -3.4240 H       
  45 H45            3.6292    -2.0375    -4.1030 H       
  46 H46            1.8875    -2.3501    -4.3015 H       
  47 H47            1.6689    -2.7203    -1.8645 H       
  48 H48            2.3501    -1.1100    -2.1972 H       
  49 H49            2.3582    -6.6721    -7.6031 H       
  50 H50            4.1047    -5.4732    -8.8521 H       
  51 H51            5.3598    -3.6498    -7.7785 H       
  52 H52            4.8731    -3.0107    -5.4536 H       
  53 H53           -0.0759    -8.2427    -4.4492 H       
  54 H54           -0.8629    -6.6919    -4.0698 H       
  55 H55           -1.3721    -7.6220    -5.4994 H       
@<TRIPOS>BOND
   1    1    2 1
   2    1    6 2
   3    1   32 1
   4    2    3 2
   5    2   33 1
   6    3    4 1
   7    3   34 1
   8    4    5 1
   9    4    7 2
  10    5    6 1
  11    5   10 am
  12    6   35 1
  13    7    8 1
  14    7   15 1
  15    8    9 2
  16    8   36 1
  17    9   10 1
  18    9   12 1
  19   10   11 2
  20   12   13 1
  21   12   14 2
  22   13   37 1
  23   15   16 1
  24   15   38 1
  25   15   39 1
  26   16   17 1
  27   16   21 1
  28   17   18 1
  29   17   40 1
  30   17   41 1
  31   18   19 1
  32   18   42 1
  33   18   43 1
  34   19   20 1
  35   19   22 1
  36   19   44 1
  37   20   21 1
  38   20   45 1
  39   20   46 1
  40   21   47 1
  41   21   48 1
  42   22   23 ar
  43   22   27 ar
  44   23   24 ar
  45   23   28 1
  46   24   25 ar
  47   24   49 1
  48   25   26 ar
  49   25   50 1
  50   26   27 ar
  51   26   51 1
  52   27   52 1
  53   28   29 2
  54   28   30 1
  55   30   31 1
  56   31   53 1
  57   31   54 1
  58   31   55 1

#	End of record

