#	Name: ASD01916265
#	Creating user name:	WinNT
#	Creation time:	15. 06. 2019 20:07

#	Modifying user name:	WinNT
#	Modification time:	15. 06. 2019 20:07

#	Program:	/corina/corina34_cracker 3.40 0067  02.08.2006

@<TRIPOS>MOLECULE
ASD01916265
  34   36    0    0    0
SMALL
NO_CHARGES


@<TRIPOS>ATOM
   1 C1            -0.0524     1.3251    -0.2458 C.ar    
   2 C2             0.0334    -0.0537    -0.1710 C.ar    
   3 C3             1.2274    -0.6576     0.1718 C.ar    
   4 C4             2.3512     0.1243     0.4433 C.ar    
   5 C5             2.2627     1.5148     0.3669 C.ar    
   6 C6             1.0608     2.1104     0.0228 C.ar    
   7 O7             0.9711     3.4642    -0.0531 O.3     
   8 C8             1.4666     4.0754    -1.1612 C.ar    
   9 C9             1.4011     5.4578    -1.3031 C.ar    
  10 N10            1.8951     6.0150    -2.3965 N.ar    
  11 C11            2.4429     5.2788    -3.3425 C.ar    
  12 N12            2.5233     3.9670    -3.2452 N.ar    
  13 C13            2.0576     3.3354    -2.1803 C.ar    
  14 Cl14          -1.3636    -1.0275    -0.5085 Cl      
  15 C15            3.6306    -0.5183     0.8111 C.2     
  16 N16            3.7134    -1.8615     0.8847 N.am    
  17 O17            4.6080     0.1647     1.0471 O.2     
  18 C18            4.9428    -2.4717     1.1269 C.ar    
  19 C19            5.0434    -3.8575     1.0861 C.ar    
  20 C20            7.3583    -3.6337     1.6047 C.ar    
  21 C21            7.1865    -2.2623     1.6235 C.ar    
  22 N22            6.0046    -1.7257     1.3885 N.ar    
  23 C23            6.2698    -4.4511     1.3285 C.ar    
  24 Cl24           8.9193    -4.3267     1.9157 Cl      
  25 H25           -0.9873     1.7921    -0.5184 H       
  26 H26            1.2913    -1.7342     0.2302 H       
  27 H27            3.1290     2.1248     0.5763 H       
  28 H28            0.9533     6.0671    -0.5321 H       
  29 H29            2.8370     5.7646    -4.2229 H       
  30 H30            2.1268     2.2601    -2.1072 H       
  31 H31            2.9173    -2.4035     0.7690 H       
  32 H32            4.1759    -4.4630     0.8684 H       
  33 H33            8.0305    -1.6221     1.8335 H       
  34 H34            6.3780    -5.5254     1.3038 H       
@<TRIPOS>BOND
   1    1    2 ar
   2    1    6 ar
   3    1   25 1
   4    2    3 ar
   5    2   14 1
   6    3    4 ar
   7    3   26 1
   8    4    5 ar
   9    4   15 1
  10    5    6 ar
  11    5   27 1
  12    6    7 1
  13    7    8 1
  14    8    9 ar
  15    8   13 ar
  16    9   10 ar
  17    9   28 1
  18   10   11 ar
  19   11   12 ar
  20   11   29 1
  21   12   13 ar
  22   13   30 1
  23   15   16 am
  24   15   17 2
  25   16   18 1
  26   16   31 1
  27   18   19 ar
  28   18   22 ar
  29   19   23 ar
  30   19   32 1
  31   20   21 ar
  32   20   24 1
  33   20   23 ar
  34   21   22 ar
  35   21   33 1
  36   23   34 1

#	End of record

