#	Name: ASD07300422
#	Creating user name:	WinNT
#	Creation time:	15. 06. 2019 21:09

#	Modifying user name:	WinNT
#	Modification time:	15. 06. 2019 21:09

#	Program:	/corina/corina34_cracker 3.40 0067  02.08.2006

@<TRIPOS>MOLECULE
ASD07300422
  55   58    0    0    0
SMALL
NO_CHARGES


@<TRIPOS>ATOM
   1 N1            -0.0178     1.4611     0.0101 N.am    
   2 C2             0.0021    -0.0041     0.0020 C.3     
   3 C3             1.4908    -0.3872    -0.0143 C.3     
   4 C4             2.2251     0.9347    -0.0142 C.ar    
   5 C5             3.5770     1.2183    -0.0262 C.ar    
   6 C6             4.0117     2.5362    -0.0240 C.ar    
   7 C7             3.0816     3.5671    -0.0096 C.ar    
   8 C8             1.7336     3.2828     0.0024 C.ar    
   9 C9             1.2914     1.9583     0.0002 C.ar    
  10 C10           -1.1323     2.2189     0.0197 C.2     
  11 O11           -1.0430     3.4307     0.0254 O.2     
  12 O12           -2.3447     1.6331     0.0230 O.3     
  13 C13            5.9461     4.0972    -0.0350 C.ar    
  14 C14            7.3333     3.9215    -0.0487 C.ar    
  15 C15            8.1597     5.0352    -0.0461 C.ar    
  16 C16            7.5691     6.2905    -0.0298 C.ar    
  17 C17            6.1906     6.3903    -0.0168 C.ar    
  18 N18            5.4278     5.3142    -0.0197 N.ar    
  19 C19            6.3788     1.9187    -0.0493 C.2     
  20 N20            5.3843     2.8256    -0.0358 N.am    
  21 N21            7.5684     2.5499    -0.0630 N.am    
  22 O22            6.2262     0.7115    -0.0536 O.2     
  23 C23            8.8832     1.9040    -0.0802 C.3     
  24 C24            9.0339     1.0208     1.1600 C.3     
  25 C25            9.0120     1.0429    -1.3383 C.3     
  26 C26           -3.5011     2.5112     0.0334 C.3     
  27 C27           -3.4775     3.4004    -1.2115 C.3     
  28 C28           -4.7796     1.6708     0.0357 C.3     
  29 C29           -3.4646     3.3877     1.2869 C.3     
  30 H30           -0.4788    -0.3936     0.8993 H       
  31 H31           -0.4959    -0.3840    -0.8900 H       
  32 H32            1.7447    -0.9632     0.8756 H       
  33 H33            1.7276    -0.9536    -0.9150 H       
  34 H34            4.2968     0.4131    -0.0371 H       
  35 H35            3.4157     4.5942    -0.0075 H       
  36 H36            1.0149     4.0889     0.0140 H       
  37 H37            9.2343     4.9282    -0.0561 H       
  38 H38            8.1803     7.1809    -0.0269 H       
  39 H39            5.7297     7.3669    -0.0038 H       
  40 H40            9.6625     2.6662    -0.0802 H       
  41 H41            8.2546     0.2586     1.1600 H       
  42 H42           10.0121     0.5402     1.1472 H       
  43 H43            8.9421     1.6342     2.0563 H       
  44 H44            8.9047     1.6722    -2.2218 H       
  45 H45            9.9903     0.5624    -1.3511 H       
  46 H46            8.2328     0.2808    -1.3383 H       
  47 H47           -3.5035     2.7759    -2.1045 H       
  48 H48           -4.3455     4.0595    -1.2037 H       
  49 H49           -2.5666     3.9990    -1.2132 H       
  50 H50           -4.7964     1.0374     0.9226 H       
  51 H51           -5.6477     2.3300     0.0435 H       
  52 H52           -4.8056     1.0464    -0.8573 H       
  53 H53           -2.5537     3.9864     1.2853 H       
  54 H54           -4.3326     4.0469     1.2947 H       
  55 H55           -3.4814     2.7542     2.1738 H       
@<TRIPOS>BOND
   1    1    2 1
   2    1    9 1
   3    1   10 am
   4    2    3 1
   5    2   30 1
   6    2   31 1
   7    3    4 1
   8    3   32 1
   9    3   33 1
  10    4    5 ar
  11    4    9 ar
  12    5    6 ar
  13    5   34 1
  14    6    7 ar
  15    6   20 1
  16    7    8 ar
  17    7   35 1
  18    8    9 ar
  19    8   36 1
  20   10   11 2
  21   10   12 1
  22   12   26 1
  23   13   14 ar
  24   13   18 ar
  25   13   20 1
  26   14   15 ar
  27   14   21 1
  28   15   16 ar
  29   15   37 1
  30   16   17 ar
  31   16   38 1
  32   17   18 ar
  33   17   39 1
  34   19   20 am
  35   19   21 am
  36   19   22 2
  37   21   23 1
  38   23   24 1
  39   23   25 1
  40   23   40 1
  41   24   41 1
  42   24   42 1
  43   24   43 1
  44   25   44 1
  45   25   45 1
  46   25   46 1
  47   26   27 1
  48   26   29 1
  49   26   28 1
  50   27   47 1
  51   27   48 1
  52   27   49 1
  53   28   50 1
  54   28   51 1
  55   28   52 1
  56   29   53 1
  57   29   54 1
  58   29   55 1

#	End of record

