#	Name: ASD01882899
#	Creating user name:	WinNT
#	Creation time:	15. 06. 2019 19:45

#	Modifying user name:	WinNT
#	Modification time:	15. 06. 2019 19:45

#	Program:	/corina/corina34_cracker 3.40 0067  02.08.2006

@<TRIPOS>MOLECULE
ASD01882899
  52   55    0    0    0
SMALL
NO_CHARGES


@<TRIPOS>ATOM
   1 C1            -1.0127     1.5332    -0.7523 C.3     
   2 N2            -0.6787     0.1194    -0.5339 N.3     
   3 C3             0.2951    -0.0291     0.5550 C.3     
   4 C4             0.7283    -1.4933     0.6576 C.3     
   5 C5            -0.5009    -2.3666     0.9244 C.3     
   6 C6            -1.5199    -2.1567    -0.1991 C.3     
   7 C7            -1.8878    -0.6733    -0.2768 C.3     
   8 C8            -0.0895    -3.8157     0.9668 C.ar    
   9 C9             0.6485    -4.3546    -0.0707 C.ar    
  10 C10            1.0269    -5.6826    -0.0344 C.ar    
  11 C11            0.6668    -6.4773     1.0447 C.ar    
  12 C12           -0.0729    -5.9365     2.0855 C.ar    
  13 C13           -0.4461    -4.6044     2.0477 C.ar    
  14 F14           -1.1668    -4.0759     3.0609 F       
  15 O15            1.0383    -7.7840     1.0812 O.3     
  16 C16            0.6326    -8.5421     2.2226 C.3     
  17 C17           -0.9116    -2.6026    -1.5303 C.3     
  18 F18           -0.7638    -8.5457     2.3078 F       
  19 F19            1.0956    -9.8564     2.0981 F       
  20 F20            1.1689    -7.9664     3.3794 F       
  21 C21            0.2042     2.2646    -1.2574 C.2     
  22 N22            0.5369     2.4105    -2.5669 N.pl3   
  23 N23            1.0869     2.8535    -0.5029 N.2     
  24 C24            2.0508     3.4133    -1.2763 C.ar    
  25 C25            1.7098     3.1358    -2.6122 C.ar    
  26 N26            3.1503     4.1114    -1.0025 N.ar    
  27 C27            3.9403     4.5528    -1.9572 C.ar    
  28 C28            3.6634     4.3113    -3.2934 C.ar    
  29 C29            2.5297     3.5938    -3.6351 C.ar    
  30 C30           -0.2105     1.8940    -3.7162 C.3     
  31 H31           -1.8131     1.6079    -1.4885 H       
  32 H32           -1.3403     1.9784     0.1871 H       
  33 H33            1.1660     0.5938     0.3509 H       
  34 H34           -0.1610     0.2814     1.4951 H       
  35 H35            1.1970    -1.8005    -0.2773 H       
  36 H36            1.4393    -1.6060     1.4761 H       
  37 H37           -0.9473    -2.0856     1.8782 H       
  38 H38           -2.4151    -2.7434     0.0073 H       
  39 H39           -2.3337    -0.3597     0.6671 H       
  40 H40           -2.6025    -0.5182    -1.0851 H       
  41 H41            0.9290    -3.7366    -0.9108 H       
  42 H42            1.6028    -6.1024    -0.8459 H       
  43 H43           -0.3546    -6.5533     2.9261 H       
  44 H44           -0.7866    -3.6854    -1.5281 H       
  45 H45           -1.5739    -2.3149    -2.3468 H       
  46 H46            0.0590    -2.1251    -1.6643 H       
  47 H47            4.8236     5.1159    -1.6940 H       
  48 H48            4.3247     4.6828    -4.0621 H       
  49 H49            2.2918     3.3919    -4.6691 H       
  50 H50           -0.9371     2.6385    -4.0415 H       
  51 H51            0.4799     1.6794    -4.5319 H       
  52 H52           -0.7305     0.9796    -3.4303 H       
@<TRIPOS>BOND
   1    1    2 1
   2    1   21 1
   3    1   31 1
   4    1   32 1
   5    2    3 1
   6    2    7 1
   7    3    4 1
   8    3   33 1
   9    3   34 1
  10    4    5 1
  11    4   35 1
  12    4   36 1
  13    5    6 1
  14    5    8 1
  15    5   37 1
  16    6    7 1
  17    6   17 1
  18    6   38 1
  19    7   39 1
  20    7   40 1
  21    8    9 ar
  22    8   13 ar
  23    9   10 ar
  24    9   41 1
  25   10   11 ar
  26   10   42 1
  27   11   12 ar
  28   11   15 1
  29   12   13 ar
  30   12   43 1
  31   13   14 1
  32   15   16 1
  33   16   18 1
  34   16   19 1
  35   16   20 1
  36   17   44 1
  37   17   45 1
  38   17   46 1
  39   21   22 1
  40   21   23 2
  41   22   30 1
  42   22   25 1
  43   23   24 1
  44   24   25 ar
  45   24   26 ar
  46   25   29 ar
  47   26   27 ar
  48   27   28 ar
  49   27   47 1
  50   28   29 ar
  51   28   48 1
  52   29   49 1
  53   30   50 1
  54   30   51 1
  55   30   52 1

#	End of record

