#	Name: ASD01820097
#	Creating user name:	WinNT
#	Creation time:	15. 06. 2019 19:36

#	Modifying user name:	WinNT
#	Modification time:	15. 06. 2019 19:36

#	Program:	/corina/corina34_cracker 3.40 0067  02.08.2006

@<TRIPOS>MOLECULE
ASD01820097
  55   57    0    0    0
SMALL
NO_CHARGES


@<TRIPOS>ATOM
   1 C1             2.0851     1.5442    -1.4661 C.3     
   2 C2             1.7697     2.3525    -0.2044 C.3     
   3 C3             2.4126     1.6713     1.0059 C.3     
   4 N4             1.8902     0.3050     1.1349 N.3     
   5 C5             2.2221    -0.5040    -0.0448 C.3     
   6 C6             1.5736     0.1122    -1.2865 C.3     
   7 C7             2.3799    -0.3319     2.3648 C.3     
   8 C8             3.9078    -0.4029     2.3287 C.3     
   9 C9             4.4129    -1.1511     3.5641 C.3     
  10 C10            5.9408    -1.2221     3.5280 C.3     
  11 O11            6.3579    -1.9133     2.3489 O.3     
  12 C12            6.5085     0.1739     3.5193 C.ar    
  13 C13            6.4383    -1.9590     4.7448 C.ar    
  14 N14            5.6988     1.2074     3.6415 N.ar    
  15 C15            6.1507     2.4464     3.6392 C.ar    
  16 C16            7.5014     2.7060     3.5068 C.ar    
  17 C17            8.3839     1.6443     3.3759 C.ar    
  18 C18            7.8725     0.3559     3.3888 C.ar    
  19 C19            5.7174    -1.9130     5.9234 C.ar    
  20 C20            7.6125    -2.6857     4.6807 C.ar    
  21 C21            8.0688    -3.3616     5.7968 C.ar    
  22 C22            7.3512    -3.3106     6.9772 C.ar    
  23 C23            6.1737    -2.5890     7.0395 C.ar    
  24 C24            2.0832     2.4647     2.2720 C.3     
  25 C25            1.6986    -1.9284     0.1501 C.3     
  26 H26            1.5931     2.0018    -2.3243 H       
  27 H27            3.1628     1.5283    -1.6286 H       
  28 H28            2.1693     3.3612    -0.3091 H       
  29 H29            0.6899     2.4009    -0.0637 H       
  30 H30            3.4936     1.6356     0.8708 H       
  31 H31            3.3040    -0.5295    -0.1749 H       
  32 H32            0.4907     0.1254    -1.1628 H       
  33 H33            1.8330    -0.4797    -2.1642 H       
  34 H34            2.0636     0.2537     3.2280 H       
  35 H35            1.9710    -1.3395     2.4398 H       
  36 H36            4.2260    -0.9301     1.4293 H       
  37 H37            4.3184     0.6068     2.3224 H       
  38 H38            4.0948    -0.6238     4.4635 H       
  39 H39            4.0023    -2.1608     3.5704 H       
  40 H40            6.0286    -2.8204     2.2875 H       
  41 H41            5.4569     3.2677     3.7417 H       
  42 H42            7.8652     3.7229     3.5049 H       
  43 H43            9.4447     1.8170     3.2704 H       
  44 H44            8.5306    -0.4947     3.2896 H       
  45 H45            4.7979    -1.3487     5.9724 H       
  46 H46            8.1732    -2.7255     3.7585 H       
  47 H47            8.9858    -3.9299     5.7465 H       
  48 H48            7.7075    -3.8390     7.8491 H       
  49 H49            5.6107    -2.5528     7.9605 H       
  50 H50            1.0143     2.3979     2.4748 H       
  51 H51            2.6392     2.0526     3.1140 H       
  52 H52            2.3613     3.5089     2.1291 H       
  53 H53            0.6358    -1.8952     0.3899 H       
  54 H54            1.8465    -2.4985    -0.7670 H       
  55 H55            2.2404    -2.4061     0.9663 H       
@<TRIPOS>BOND
   1    1    2 1
   2    1    6 1
   3    1   26 1
   4    1   27 1
   5    2    3 1
   6    2   28 1
   7    2   29 1
   8    3    4 1
   9    3   24 1
  10    3   30 1
  11    4    5 1
  12    4    7 1
  13    5    6 1
  14    5   25 1
  15    5   31 1
  16    6   32 1
  17    6   33 1
  18    7    8 1
  19    7   34 1
  20    7   35 1
  21    8    9 1
  22    8   36 1
  23    8   37 1
  24    9   10 1
  25    9   38 1
  26    9   39 1
  27   10   11 1
  28   10   12 1
  29   10   13 1
  30   11   40 1
  31   12   14 ar
  32   12   18 ar
  33   13   20 ar
  34   13   19 ar
  35   14   15 ar
  36   15   16 ar
  37   15   41 1
  38   16   17 ar
  39   16   42 1
  40   17   18 ar
  41   17   43 1
  42   18   44 1
  43   19   23 ar
  44   19   45 1
  45   20   21 ar
  46   20   46 1
  47   21   22 ar
  48   21   47 1
  49   22   23 ar
  50   22   48 1
  51   23   49 1
  52   24   50 1
  53   24   51 1
  54   24   52 1
  55   25   53 1
  56   25   54 1
  57   25   55 1

#	End of record

