#	Name: ASD01240001
#	Creating user name:	WinNT
#	Creation time:	15. 06. 2019 19:15

#	Modifying user name:	WinNT
#	Modification time:	15. 06. 2019 19:15

#	Program:	/corina/corina34_cracker 3.40 0067  02.08.2006

@<TRIPOS>MOLECULE
ASD01240001
  50   53    0    0    0
SMALL
NO_CHARGES


@<TRIPOS>ATOM
   1 C1            -0.0167     1.3782     0.0096 C.ar    
   2 C2             0.0021    -0.0041     0.0020 C.ar    
   3 C3            -0.7439    -6.7047    -0.8195 C.ar    
   4 C4             2.0938    -1.2736     5.9136 C.ar    
   5 C5             3.7790    -1.0592     4.1911 C.ar    
   6 C6            -0.8260    -4.5564    -1.8846 C.ar    
   7 C7             2.3981     0.0193    -0.0207 C.ar    
   8 C8             1.0946    -4.2408     1.3730 C.3     
   9 C9             1.5531    -1.9993     3.5953 C.2     
  10 C10           -1.1465    -5.9041    -1.8775 C.ar    
  11 C11            1.1738     2.0873     0.0021 C.ar    
  12 C12            2.3864     1.4049    -0.0132 C.ar    
  13 C13            2.9750    -0.7443     6.8374 C.ar    
  14 C14            4.6560    -0.5305     5.1192 C.ar    
  15 C15           -0.0208    -6.1540     0.2262 C.ar    
  16 C16            2.4910    -1.4344     4.5833 C.ar    
  17 O17            0.4338    -2.3255     3.9376 O.2     
  18 O18           -1.8541    -6.4407    -2.9062 O.3     
  19 O19            1.1571     3.4471     0.0091 O.3     
  20 O20            3.5574     2.0963    -0.0202 O.3     
  21 O21            2.5890    -0.5875     8.1321 O.3     
  22 O22            5.9093    -0.1648     4.7382 O.3     
  23 O23            0.3741    -6.9389     1.2630 O.3     
  24 O24            5.1220     0.1483     7.3544 O.3     
  25 O25            1.9374    -2.1538     2.3131 O.3     
  26 O26            0.1879    -2.6754    -0.8785 O.3     
  27 C27            1.2069    -0.6820    -0.0131 C.ar    
  28 C28            4.2577    -0.3718     6.4440 C.ar    
  29 C29           -0.1009    -4.0023    -0.8353 C.ar    
  30 C30            0.3028    -4.8022     0.2191 C.ar    
  31 C31            0.9623    -2.7160     1.3958 C.3     
  32 C32            1.2215    -2.1890    -0.0214 C.3     
  33 H33           -0.9592     1.9054     0.0169 H       
  34 H34           -0.9265    -0.5556     0.0083 H       
  35 H35           -0.9973    -7.7545    -0.8083 H       
  36 H36            1.1006    -1.5668     6.2203 H       
  37 H37            4.0884    -1.1821     3.1637 H       
  38 H38           -1.1405    -3.9333    -2.7088 H       
  39 H39            3.3379    -0.5127    -0.0329 H       
  40 H40            0.7140    -4.6519     2.3081 H       
  41 H41            2.1441    -4.5121     1.2588 H       
  42 H42           -2.8125    -6.4149    -2.7800 H       
  43 H43            1.1605     3.8359     0.8944 H       
  44 H44            3.8880     2.3010    -0.9056 H       
  45 H45            2.7706    -1.3546     8.6923 H       
  46 H46            5.9784     0.7533     4.4424 H       
  47 H47            1.2413    -7.3482     1.1383 H       
  48 H48            5.6652    -0.5135     7.8039 H       
  49 H49           -0.0430    -2.4391     1.7133 H       
  50 H50            2.1893    -2.5448    -0.3747 H       
@<TRIPOS>BOND
   1    1    2 ar
   2    1   11 ar
   3    1   33 1
   4    2   27 ar
   5    2   34 1
   6    3   10 ar
   7    3   15 ar
   8    3   35 1
   9    4   13 ar
  10    4   16 ar
  11    4   36 1
  12    5   14 ar
  13    5   16 ar
  14    5   37 1
  15    6   10 ar
  16    6   29 ar
  17    6   38 1
  18    7   12 ar
  19    7   27 ar
  20    7   39 1
  21    8   30 1
  22    8   31 1
  23    8   40 1
  24    8   41 1
  25    9   16 1
  26    9   17 2
  27    9   25 1
  28   10   18 1
  29   11   12 ar
  30   11   19 1
  31   12   20 1
  32   13   21 1
  33   13   28 ar
  34   14   22 1
  35   14   28 ar
  36   15   23 1
  37   15   30 ar
  38   18   42 1
  39   19   43 1
  40   20   44 1
  41   21   45 1
  42   22   46 1
  43   23   47 1
  44   24   28 1
  45   24   48 1
  46   25   31 1
  47   26   29 1
  48   26   32 1
  49   27   32 1
  50   29   30 ar
  51   31   32 1
  52   31   49 1
  53   32   50 1

#	End of record

