#	Name: ASD01910294
#	Creating user name:	WinNT
#	Creation time:	15. 06. 2019 19:55

#	Modifying user name:	WinNT
#	Modification time:	15. 06. 2019 19:55

#	Program:	/corina/corina34_cracker 3.40 0067  02.08.2006

@<TRIPOS>MOLECULE
ASD01910294
  43   46    0    0    0
SMALL
NO_CHARGES


@<TRIPOS>ATOM
   1 C1            -0.7169     2.2784     0.1867 C.ar    
   2 C2            -0.8499     0.9039     0.2546 C.ar    
   3 C3             0.2884     0.1118     0.3055 C.ar    
   4 C4             1.5259     0.7316     0.2864 C.ar    
   5 C5             1.5857     2.1215     0.2170 C.ar    
   6 N6             0.4737     2.8427     0.1698 N.ar    
   7 C7             2.9051     2.8012     0.1956 C.2     
   8 N8             3.1207     4.1001     0.1323 N.2     
   9 N9             4.3955     4.2889     0.1357 N.pl3   
  10 N10            4.9944     3.1511     0.1992 N.2     
  11 N11            4.1093     2.2139     0.2429 N.2     
  12 C12            5.0592     5.5936     0.0763 C.3     
  13 C13            5.9209     5.7858     1.3263 C.3     
  14 C14            6.5887     7.1621     1.2809 C.3     
  15 C15            7.4972     7.2440     0.0501 C.3     
  16 N16            6.7061     6.9174    -1.1442 N.am    
  17 C17            5.9503     5.6577    -1.1682 C.3     
  18 C18            6.6744     7.7574    -2.1976 C.2     
  19 C19            5.9818     7.3583    -3.4400 C.ar    
  20 O20            7.2157     8.8436    -2.1255 O.2     
  21 C21            5.1911     8.2806    -4.1287 C.ar    
  22 C22            4.5475     7.9031    -5.2876 C.ar    
  23 C23            4.6841     6.6103    -5.7699 C.ar    
  24 C24            5.4676     5.6905    -5.0898 C.ar    
  25 C25            6.1202     6.0591    -3.9330 C.ar    
  26 F26            4.0511     6.2455    -6.9063 F       
  27 H27           -1.6006     2.8976     0.1423 H       
  28 H28           -1.8303     0.4511     0.2682 H       
  29 H29            0.2105    -0.9640     0.3593 H       
  30 H30            2.4323     0.1458     0.3251 H       
  31 H31            4.3080     6.3819     0.0274 H       
  32 H32            5.2929     5.7161     2.2145 H       
  33 H33            6.6871     5.0114     1.3618 H       
  34 H34            5.8236     7.9360     1.2204 H       
  35 H35            7.1837     7.3077     2.1825 H       
  36 H36            7.8979     8.2535    -0.0418 H       
  37 H37            8.3159     6.5316     0.1521 H       
  38 H38            6.6428     4.8160    -1.1655 H       
  39 H39            5.3303     5.6206    -2.0639 H       
  40 H40            5.0837     9.2877    -3.7537 H       
  41 H41            3.9354     8.6154    -5.8208 H       
  42 H42            5.5704     4.6847    -5.4695 H       
  43 H43            6.7306     5.3420    -3.4042 H       
@<TRIPOS>BOND
   1    1    2 ar
   2    1    6 ar
   3    1   27 1
   4    2    3 ar
   5    2   28 1
   6    3    4 ar
   7    3   29 1
   8    4    5 ar
   9    4   30 1
  10    5    6 ar
  11    5    7 1
  12    7    8 2
  13    7   11 1
  14    8    9 1
  15    9   10 1
  16    9   12 1
  17   10   11 2
  18   12   13 1
  19   12   17 1
  20   12   31 1
  21   13   14 1
  22   13   32 1
  23   13   33 1
  24   14   15 1
  25   14   34 1
  26   14   35 1
  27   15   16 1
  28   15   36 1
  29   15   37 1
  30   16   17 1
  31   16   18 am
  32   17   38 1
  33   17   39 1
  34   18   19 1
  35   18   20 2
  36   19   21 ar
  37   19   25 ar
  38   21   22 ar
  39   21   40 1
  40   22   23 ar
  41   22   41 1
  42   23   24 ar
  43   23   26 1
  44   24   25 ar
  45   24   42 1
  46   25   43 1

#	End of record

