#	Name: ASD01840055
#	Creating user name:	WinNT
#	Creation time:	15. 06. 2019 19:37

#	Modifying user name:	WinNT
#	Modification time:	15. 06. 2019 19:37

#	Program:	/corina/corina34_cracker 3.40 0067  02.08.2006

@<TRIPOS>MOLECULE
ASD01840055
  54   57    0    0    0
SMALL
NO_CHARGES


@<TRIPOS>ATOM
   1 C1            -0.0160     1.3306     0.0371 C.ar    
   2 N2             0.2788     0.4962     1.0230 N.ar    
   3 C3             1.4183    -0.1716     1.0362 C.ar    
   4 N4             2.3129    -0.0472     0.0834 N.ar    
   5 C5             0.9160     1.5025    -1.0183 C.ar    
   6 C6             0.8526     2.3367    -2.2036 C.2     
   7 C7             2.1058     0.7720    -0.9553 C.ar    
   8 S8             3.0994     1.1410    -2.3573 S.3     
   9 C9             1.9065     2.2583    -2.9926 C.2     
  10 C10           -0.3264     3.2239    -2.5097 C.3     
  11 C11            2.0654     3.0306    -4.2768 C.3     
  12 N12           -1.2158     2.0189     0.0340 N.3     
  13 C13           -2.3512     1.0965    -0.0948 C.3     
  14 C14           -3.6469     1.8977    -0.2408 C.3     
  15 C15           -3.8292     2.7927     0.9882 C.3     
  16 C16           -2.6109     3.7098     1.1271 C.3     
  17 C17           -1.3453     2.8561     1.2335 C.3     
  18 C18           -5.0724     3.6282     0.8228 C.2     
  19 O19           -5.7473     3.5196    -0.1791 O.2     
  20 N20           -5.4343     4.4962     1.7883 N.am    
  21 C21           -6.5326     5.3410     1.5937 C.ar    
  22 C22           -7.6048     7.4615     1.9163 C.ar    
  23 C23           -6.5193     6.6299     2.1105 C.ar    
  24 C24           -7.6360     4.8943     0.8785 C.ar    
  25 C25           -8.7183     5.7307     0.6878 C.ar    
  26 C26           -8.7041     7.0118     1.2082 C.ar    
  27 S27          -10.0869     8.0759     0.9626 S.o     
  28 O28           -9.9326     8.4945    -0.3865 O.2     
  29 O29          -11.2569     7.1052     0.8881 O.3     
  30 C30          -12.5234     7.7358     0.6878 C.3     
  31 H31            1.6210    -0.8420     1.8583 H       
  32 H32           -0.2085     4.1762    -1.9927 H       
  33 H33           -0.3806     3.3982    -3.5843 H       
  34 H34           -1.2430     2.7390    -2.1736 H       
  35 H35            2.5482     3.9855    -4.0691 H       
  36 H36            2.6784     2.4572    -4.9722 H       
  37 H37            1.0845     3.2077    -4.7180 H       
  38 H38           -2.2112     0.4689    -0.9748 H       
  39 H39           -2.4111     0.4679     0.7937 H       
  40 H40           -3.5933     2.5163    -1.1367 H       
  41 H41           -4.4912     1.2129    -0.3207 H       
  42 H42           -3.9218     2.1726     1.8798 H       
  43 H43           -2.5410     4.3569     0.2527 H       
  44 H44           -2.7150     4.3197     2.0245 H       
  45 H45           -1.4099     2.2193     2.1157 H       
  46 H46           -0.4746     3.5064     1.3181 H       
  47 H47           -4.9333     4.5353     2.6180 H       
  48 H48           -7.5951     8.4638     2.3183 H       
  49 H49           -5.6611     6.9816     2.6639 H       
  50 H50           -7.6476     3.8940     0.4715 H       
  51 H51           -9.5766     5.3840     0.1314 H       
  52 H52          -12.7241     8.4185     1.5134 H       
  53 H53          -12.5077     8.2930    -0.2489 H       
  54 H54          -13.3046     6.9767     0.6459 H       
@<TRIPOS>BOND
   1    1    2 ar
   2    1    5 ar
   3    1   12 1
   4    2    3 ar
   5    3    4 ar
   6    3   31 1
   7    4    7 ar
   8    5    7 ar
   9    5    6 1
  10    6    9 2
  11    6   10 1
  12    7    8 1
  13    8    9 1
  14    9   11 1
  15   10   32 1
  16   10   33 1
  17   10   34 1
  18   11   35 1
  19   11   36 1
  20   11   37 1
  21   12   13 1
  22   12   17 1
  23   13   14 1
  24   13   38 1
  25   13   39 1
  26   14   15 1
  27   14   40 1
  28   14   41 1
  29   15   16 1
  30   15   18 1
  31   15   42 1
  32   16   17 1
  33   16   43 1
  34   16   44 1
  35   17   45 1
  36   17   46 1
  37   18   19 2
  38   18   20 am
  39   20   21 1
  40   20   47 1
  41   21   24 ar
  42   21   23 ar
  43   22   23 ar
  44   22   26 ar
  45   22   48 1
  46   23   49 1
  47   24   25 ar
  48   24   50 1
  49   25   26 ar
  50   25   51 1
  51   26   27 1
  52   27   28 2
  53   27   29 1
  54   29   30 1
  55   30   52 1
  56   30   53 1
  57   30   54 1

#	End of record

