#	Name: ASD02508473
#	Creating user name:	WinNT
#	Creation time:	15. 06. 2019 20:24

#	Modifying user name:	WinNT
#	Modification time:	15. 06. 2019 20:24

#	Program:	/corina/corina34_cracker 3.40 0067  02.08.2006

@<TRIPOS>MOLECULE
ASD02508473
  32   34    0    0    0
SMALL
NO_CHARGES


@<TRIPOS>ATOM
   1 N1            -0.0085     1.3471    -0.0427 N.2     
   2 C2            -0.0030     0.0056    -0.0667 C.2     
   3 C3             1.2750    -0.4115    -0.0021 C.2     
   4 N4             2.0574     0.7140     0.0626 N.pl3   
   5 C5             1.2183     1.7838     0.0346 C.2     
   6 C6             3.4501     0.7533     0.1421 C.ar    
   7 N7             4.0960     0.0086     1.0325 N.ar    
   8 C8             4.1848     1.5701    -0.7154 C.ar    
   9 C9             5.5629     1.5745    -0.5985 C.ar    
  10 N10            6.1359     0.8084     0.3174 N.ar    
  11 C11            5.4119     0.0423     1.1108 C.ar    
  12 S12            1.8357    -2.0819     0.0002 S.o2    
  13 N13            1.8457    -2.5978    -1.5734 N.am    
  14 C14            2.7148    -2.0103    -2.4954 C.ar    
  15 C15            3.4423    -2.8065    -3.3704 C.ar    
  16 C16            4.3026    -2.2224    -4.2828 C.ar    
  17 C17            4.4391    -0.8450    -4.3238 C.ar    
  18 C18            3.7151    -0.0492    -3.4519 C.ar    
  19 C19            2.8486    -0.6287    -2.5423 C.ar    
  20 O20            3.1928    -2.0490     0.4203 O.2     
  21 O21            0.8346    -2.8404     0.6648 O.2     
  22 Cl22           6.2129    -0.9425     2.2950 Cl      
  23 F23            3.8505     1.2943    -3.4937 F       
  24 F24            5.0105    -2.9964    -5.1343 F       
  25 H25           -0.8740    -0.6300    -0.1272 H       
  26 H26            1.5175     2.8210     0.0704 H       
  27 H27            3.6902     2.1844    -1.4533 H       
  28 H28            6.1645     2.1949    -1.2464 H       
  29 H29            1.2479    -3.3080    -1.8547 H       
  30 H30            3.3367    -3.8808    -3.3384 H       
  31 H31            5.1114    -0.3907    -5.0365 H       
  32 H32            2.2839    -0.0076    -1.8628 H       
@<TRIPOS>BOND
   1    1    2 1
   2    1    5 2
   3    2    3 2
   4    2   25 1
   5    3    4 1
   6    3   12 1
   7    4    5 1
   8    4    6 1
   9    5   26 1
  10    6    7 ar
  11    6    8 ar
  12    7   11 ar
  13    8    9 ar
  14    8   27 1
  15    9   10 ar
  16    9   28 1
  17   10   11 ar
  18   11   22 1
  19   12   13 am
  20   12   20 2
  21   12   21 2
  22   13   14 1
  23   13   29 1
  24   14   15 ar
  25   14   19 ar
  26   15   16 ar
  27   15   30 1
  28   16   17 ar
  29   16   24 1
  30   17   18 ar
  31   17   31 1
  32   18   19 ar
  33   18   23 1
  34   19   32 1

#	End of record

