#	Name: ASD01883953
#	Creating user name:	WinNT
#	Creation time:	15. 06. 2019 19:47

#	Modifying user name:	WinNT
#	Modification time:	15. 06. 2019 19:47

#	Program:	/corina/corina34_cracker 3.40 0067  02.08.2006

@<TRIPOS>MOLECULE
ASD01883953
  54   57    0    0    0
SMALL
NO_CHARGES


@<TRIPOS>ATOM
   1 C1             0.0534     0.3843    -0.5870 C.3     
   2 C2            -0.4004    -1.0120    -0.1568 C.3     
   3 C3             0.3694    -1.4354     1.0676 C.2     
   4 N4             1.5086    -2.0782     1.0810 N.2     
   5 N5             1.8911    -2.2831     2.2924 N.2     
   6 C6             1.0013    -1.7734     3.1283 C.2     
   7 C7             0.9152    -1.7121     4.5326 C.2     
   8 C8            -0.1566    -1.1021     5.1063 C.2     
   9 C9            -0.2690    -1.0245     6.6071 C.3     
  10 N10            0.2237     0.2803     7.0682 N.3     
  11 C11            0.1291     0.3921     8.5299 C.3     
  12 H12           -0.7604    -0.1331     8.8777 H       
  13 C13            1.3717    -0.2298     9.1704 C.3     
  14 C14            2.6203     0.5075     8.6822 C.3     
  15 C15            2.5279     1.9831     9.0759 C.3     
  16 H16            2.4577     2.0660    10.1605 H       
  17 C17            1.2853     2.6050     8.4354 C.3     
  18 C18            0.0367     1.8677     8.9236 C.3     
  19 C19            3.7577     2.7093     8.5950 C.ar    
  20 C20            4.0546     2.7464     7.2460 C.ar    
  21 C21            5.1821     3.4125     6.8034 C.ar    
  22 C22            6.0153     4.0433     7.7116 C.ar    
  23 F23            7.1169     4.6946     7.2788 F       
  24 C24            5.7188     4.0067     9.0634 C.ar    
  25 C25            4.5869     3.3440     9.5048 C.ar    
  26 F26            4.2936     3.3119    10.8232 F       
  27 C27           -1.1587    -0.5440     4.2941 C.2     
  28 C28           -1.0628    -0.6103     2.9496 C.2     
  29 N29            0.0093    -1.2138     2.3608 N.pl3   
  30 C30            1.9978    -2.3158     5.3897 C.3     
  31 F31            1.5594    -3.5428     5.8991 F       
  32 F32            3.1471    -2.5154     4.6174 F       
  33 F33            2.2919    -1.4497     6.4482 F       
  34 H34            1.1189     0.3655    -0.8163 H       
  35 H35           -0.5034     0.6906    -1.4726 H       
  36 H36           -0.1319     1.0917     0.2213 H       
  37 H37           -1.4659    -0.9932     0.0724 H       
  38 H38           -0.2152    -1.7194    -0.9651 H       
  39 H39           -1.3122    -1.1432     6.8999 H       
  40 H40            0.3273    -1.8179     7.0576 H       
  41 H41            1.1687     0.4418     6.7536 H       
  42 H42            1.3015    -0.1468    10.2550 H       
  43 H43            1.4375    -1.2810     8.8899 H       
  44 H44            3.5055     0.0645     9.1385 H       
  45 H45            2.6904     0.4245     7.5976 H       
  46 H46            1.2195     3.6562     8.7159 H       
  47 H47            1.3555     2.5220     7.3508 H       
  48 H48           -0.8485     2.3108     8.4673 H       
  49 H49           -0.0334     1.9507    10.0082 H       
  50 H50            3.4055     2.2543     6.5368 H       
  51 H51            5.4134     3.4405     5.7488 H       
  52 H52            6.3682     4.4985     9.7725 H       
  53 H53           -2.0104    -0.0597     4.7484 H       
  54 H54           -1.8386    -0.1780     2.3350 H       
@<TRIPOS>BOND
   1    1    2 1
   2    1   34 1
   3    1   35 1
   4    1   36 1
   5    2    3 1
   6    2   37 1
   7    2   38 1
   8    3   29 1
   9    3    4 2
  10    4    5 1
  11    5    6 2
  12    6   29 1
  13    6    7 1
  14    7    8 2
  15    7   30 1
  16    8    9 1
  17    8   27 1
  18    9   10 1
  19    9   39 1
  20    9   40 1
  21   10   11 1
  22   10   41 1
  23   11   12 1
  24   11   18 1
  25   11   13 1
  26   13   14 1
  27   13   42 1
  28   13   43 1
  29   14   15 1
  30   14   44 1
  31   14   45 1
  32   15   16 1
  33   15   17 1
  34   15   19 1
  35   17   18 1
  36   17   46 1
  37   17   47 1
  38   18   48 1
  39   18   49 1
  40   19   25 ar
  41   19   20 ar
  42   20   21 ar
  43   20   50 1
  44   21   22 ar
  45   21   51 1
  46   22   23 1
  47   22   24 ar
  48   24   25 ar
  49   24   52 1
  50   25   26 1
  51   27   28 2
  52   27   53 1
  53   28   29 1
  54   28   54 1
  55   30   31 1
  56   30   32 1
  57   30   33 1

#	End of record

