#	Name: ASD01913882
#	Creating user name:	WinNT
#	Creation time:	15. 06. 2019 20:02

#	Modifying user name:	WinNT
#	Modification time:	15. 06. 2019 20:02

#	Program:	/corina/corina34_cracker 3.40 0067  02.08.2006

@<TRIPOS>MOLECULE
ASD01913882
  45   47    0    0    0
SMALL
NO_CHARGES


@<TRIPOS>ATOM
   1 C1             0.1868     1.3687     0.7730 C.ar    
   2 C2             0.1519    -0.0473     0.5628 C.1     
   3 C3             0.1234    -1.2083     0.3905 C.1     
   4 C4             0.0885    -2.6244     0.1804 C.ar    
   5 C5            -1.1216    -3.3283     0.2719 C.ar    
   6 C6             0.1026    -5.3199    -0.2338 C.ar    
   7 N7             1.2282    -4.6269    -0.3186 N.ar    
   8 C8             1.2577    -3.3247    -0.1245 C.ar    
   9 C9            -1.1042    -4.6923     0.0606 C.ar    
  10 C10            1.3958     2.0623     0.6800 C.ar    
  11 C11            1.4213     3.4286     0.8837 C.ar    
  12 C12           -0.9897     2.0640     1.0662 C.ar    
  13 C13            0.2510     4.1093     1.1797 C.ar    
  14 C14           -0.9500     3.4278     1.2672 C.ar    
  15 N15            0.1260    -6.6958    -0.4487 N.am    
  16 C16            0.3512    -7.6242     0.4902 C.2     
  17 N17            0.3214    -8.8814     0.0289 N.am    
  18 C18            0.0416    -8.8598    -1.4146 C.3     
  19 C19           -0.0988    -7.3603    -1.7411 C.3     
  20 C20            0.5339   -10.0864     0.8344 C.3     
  21 O21            0.5638    -7.3506     1.6556 O.2     
  22 C22            1.2024    -9.4786    -2.1960 C.3     
  23 C23           -1.2652    -9.5950    -1.7194 C.3     
  24 F24            2.5890     4.1021     0.7945 F       
  25 C25           -2.3778    -5.4931     0.1483 C.3     
  26 H26           -2.0439    -2.8158     0.5023 H       
  27 H27            2.1948    -2.7934    -0.2021 H       
  28 H28            2.3081     1.5319     0.4501 H       
  29 H29           -1.9283     1.5342     1.1351 H       
  30 H30            0.2759     5.1772     1.3387 H       
  31 H31           -1.8582     3.9647     1.4982 H       
  32 H32           -1.0972    -7.1432    -2.1208 H       
  33 H33            0.6604    -7.0526    -2.4602 H       
  34 H34            0.7201    -9.8029     1.8703 H       
  35 H35           -0.3532   -10.7179     0.7845 H       
  36 H36            1.3927   -10.6351     0.4479 H       
  37 H37            1.3275   -10.5193    -1.8973 H       
  38 H38            0.9883    -9.4302    -3.2637 H       
  39 H39            2.1182    -8.9270    -1.9837 H       
  40 H40           -2.0825    -9.1252    -1.1723 H       
  41 H41           -1.4686    -9.5462    -2.7891 H       
  42 H42           -1.1753   -10.6374    -1.4138 H       
  43 H43           -2.8018    -5.6116    -0.8489 H       
  44 H44           -2.1615    -6.4746     0.5701 H       
  45 H45           -3.0912    -4.9723     0.7869 H       
@<TRIPOS>BOND
   1    1    2 1
   2    1   10 ar
   3    1   12 ar
   4    2    3 3
   5    3    4 1
   6    4    5 ar
   7    4    8 ar
   8    5    9 ar
   9    5   26 1
  10    6    7 ar
  11    6   15 1
  12    6    9 ar
  13    7    8 ar
  14    8   27 1
  15    9   25 1
  16   10   11 ar
  17   10   28 1
  18   11   13 ar
  19   11   24 1
  20   12   14 ar
  21   12   29 1
  22   13   14 ar
  23   13   30 1
  24   14   31 1
  25   15   16 am
  26   15   19 1
  27   16   17 am
  28   16   21 2
  29   17   18 1
  30   17   20 1
  31   18   19 1
  32   18   22 1
  33   18   23 1
  34   19   32 1
  35   19   33 1
  36   20   34 1
  37   20   35 1
  38   20   36 1
  39   22   37 1
  40   22   38 1
  41   22   39 1
  42   23   40 1
  43   23   41 1
  44   23   42 1
  45   25   43 1
  46   25   44 1
  47   25   45 1

#	End of record

