#	Name: ASD03240647
#	Creating user name:	WinNT
#	Creation time:	15. 06. 2019 20:35

#	Modifying user name:	WinNT
#	Modification time:	15. 06. 2019 20:35

#	Program:	/corina/corina34_cracker 3.40 0067  02.08.2006

@<TRIPOS>MOLECULE
ASD03240647
  64   70    0    0    0
SMALL
NO_CHARGES


@<TRIPOS>ATOM
   1 C1             0.0466     1.1670    -0.2557 C.ar    
   2 C2             0.1305    -0.2077    -0.3362 C.ar    
   3 N3             1.3000    -0.8188    -0.3298 N.ar    
   4 C4             2.4408    -0.1477    -0.2460 C.ar    
   5 C5             2.4312     1.2440    -0.1762 C.ar    
   6 C6             1.2146     1.9139    -0.1744 C.ar    
   7 N7             3.6406    -0.8528    -0.2079 N.pl3   
   8 C8             4.4677    -0.7868     0.9101 C.ar    
   9 C9             5.0335     0.4301     1.3052 C.ar    
  10 C10            4.7811     1.6576     0.5189 C.2     
  11 N11            3.6220     1.9825    -0.1256 N.pl3   
  12 C12            4.7335    -1.9359     1.6428 C.ar    
  13 C13            5.5433    -1.8719     2.7606 C.ar    
  14 C14            6.0947    -0.6663     3.1590 C.ar    
  15 C15            5.8442     0.4842     2.4388 C.ar    
  16 N16            5.6597     2.6218     0.3306 N.2     
  17 C17            5.1190     3.5851    -0.4311 C.2     
  18 C18            3.8232     3.2042    -0.7376 C.2     
  19 C19            2.8513     3.9545    -1.5559 C.ar    
  20 C20            2.6831     5.3277    -1.3621 C.ar    
  21 C21            2.0993     3.2957    -2.5318 C.ar    
  22 C22            1.1921     4.0023    -3.2938 C.ar    
  23 C23            1.0254     5.3610    -3.0946 C.ar    
  24 C24            1.7713     6.0233    -2.1320 C.ar    
  25 C25            5.7882     4.8330    -0.8664 C.ar    
  26 C26            0.0329     6.1257    -3.9320 C.3     
  27 C27            6.6946     5.4720    -0.0202 C.ar    
  28 N28           -1.2061     6.4363    -3.2065 N.3     
  29 C29            0.6426     7.3373    -4.6567 C.3     
  30 C30           -0.2236     6.9499    -5.8669 C.3     
  31 C31           -0.2024     5.5119    -5.3222 C.3     
  32 C32            7.3160     6.6331    -0.4289 C.ar    
  33 C33            7.0402     7.1666    -1.6806 C.ar    
  34 C34            6.1386     6.5333    -2.5254 C.ar    
  35 C35            5.5178     5.3687    -2.1256 C.ar    
  36 O36            7.6537     8.3116    -2.0797 O.3     
  37 F37            1.6025     7.3503    -1.9430 F       
  38 C38            7.3239     8.8052    -3.3796 C.3     
  39 H39           -0.9159     1.6569    -0.2604 H       
  40 H40           -0.7748    -0.7926    -0.4051 H       
  41 H41            1.1778     2.9914    -0.1119 H       
  42 H42            3.9028    -1.3957    -0.9678 H       
  43 H43            4.3066    -2.8804     1.3390 H       
  44 H44            5.7477    -2.7685     3.3270 H       
  45 H45            6.7227    -0.6258     4.0367 H       
  46 H46            6.2754     1.4237     2.7517 H       
  47 H47            3.2642     5.8439    -0.6123 H       
  48 H48            2.2283     2.2351    -2.6896 H       
  49 H49            0.6106     3.4934    -4.0483 H       
  50 H50            6.9091     5.0580     0.9539 H       
  51 H51           -1.5847     5.6105    -2.7674 H       
  52 H52           -1.0546     7.1688    -2.5292 H       
  53 H53            0.3694     8.2945    -4.2128 H       
  54 H54            1.7133     7.2440    -4.8384 H       
  55 H55           -1.2139     7.4053    -5.8587 H       
  56 H56            0.2871     7.0621    -6.8233 H       
  57 H57            0.6372     4.9196    -5.6858 H       
  58 H58           -1.1578     4.9955    -5.4155 H       
  59 H59            8.0179     7.1284     0.2257 H       
  60 H60            5.9264     6.9510    -3.4984 H       
  61 H61            4.8166     4.8766    -2.7832 H       
  62 H62            7.5834     8.0574    -4.1289 H       
  63 H63            6.2551     9.0132    -3.4288 H       
  64 H64            7.8817     9.7216    -3.5725 H       
@<TRIPOS>BOND
   1    1    2 ar
   2    1    6 ar
   3    1   39 1
   4    2    3 ar
   5    2   40 1
   6    3    4 ar
   7    4    5 ar
   8    4    7 1
   9    5    6 ar
  10    5   11 1
  11    6   41 1
  12    7    8 1
  13    7   42 1
  14    8    9 ar
  15    8   12 ar
  16    9   10 1
  17    9   15 ar
  18   10   11 1
  19   10   16 2
  20   11   18 1
  21   12   13 ar
  22   12   43 1
  23   13   14 ar
  24   13   44 1
  25   14   15 ar
  26   14   45 1
  27   15   46 1
  28   16   17 1
  29   17   18 2
  30   17   25 1
  31   18   19 1
  32   19   20 ar
  33   19   21 ar
  34   20   24 ar
  35   20   47 1
  36   21   22 ar
  37   21   48 1
  38   22   23 ar
  39   22   49 1
  40   23   24 ar
  41   23   26 1
  42   24   37 1
  43   25   27 ar
  44   25   35 ar
  45   26   29 1
  46   26   28 1
  47   26   31 1
  48   27   32 ar
  49   27   50 1
  50   28   51 1
  51   28   52 1
  52   29   30 1
  53   29   53 1
  54   29   54 1
  55   30   31 1
  56   30   55 1
  57   30   56 1
  58   31   57 1
  59   31   58 1
  60   32   33 ar
  61   32   59 1
  62   33   34 ar
  63   33   36 1
  64   34   35 ar
  65   34   60 1
  66   35   61 1
  67   36   38 1
  68   38   62 1
  69   38   63 1
  70   38   64 1

#	End of record

