#	Name: ASD00310461
#	Creating user name:	WinNT
#	Creation time:	15. 06. 2019 18:34

#	Modifying user name:	WinNT
#	Modification time:	15. 06. 2019 18:34

#	Program:	/corina/corina34_cracker 3.40 0067  02.08.2006

@<TRIPOS>MOLECULE
ASD00310461
  49   52    0    0    0
SMALL
NO_CHARGES


@<TRIPOS>ATOM
   1 N1            -0.0163     1.3499     0.0095 N.pl3   
   2 C2             0.0021    -0.0041     0.0020 C.2     
   3 C3             1.2922    -0.4483    -0.0127 C.2     
   4 C4             2.1476     0.7538    -0.0144 C.ar    
   5 C5             3.5232     0.9581    -0.0271 C.ar    
   6 C6             4.0242     2.2536    -0.0256 C.ar    
   7 C7             3.1468     3.3435    -0.0114 C.ar    
   8 C8             1.7853     3.1435     0.0012 C.ar    
   9 C9             1.2697     1.8501    -0.0001 C.ar    
  10 C10            1.7402    -1.8454    -0.0245 C.2     
  11 O11            2.9286    -2.1027    -0.0367 O.2     
  12 O12            0.8342    -2.8441    -0.0217 O.3     
  13 C13            5.4901     2.4819    -0.0386 C.ar    
  14 C14            6.0516     3.3601    -0.9641 C.ar    
  15 C15            7.4185     3.5706    -0.9728 C.ar    
  16 C16            8.2308     2.9053    -0.0576 C.ar    
  17 C17            7.6714     2.0322     0.8622 C.ar    
  18 C18            6.3068     1.8231     0.8779 C.ar    
  19 O19            9.5747     3.1122    -0.0669 O.3     
  20 C20           10.3479     2.3974     0.8992 C.3     
  21 N21           12.0551     4.1816     1.0872 N.3     
  22 C22           11.8262     2.7563     0.7361 C.3     
  23 C23           12.6869     1.9643     1.7437 C.3     
  24 C24           13.7903     2.9468     2.1875 C.3     
  25 C25           13.5035     4.2497     1.4107 C.3     
  26 O26            7.9693     4.4264    -1.8748 O.3     
  27 C27            7.0766     5.0738    -2.7837 C.3     
  28 Cl28           3.7804     4.9598    -0.0090 Cl      
  29 H29           -0.8206     1.8921     0.0163 H       
  30 H30           -0.8729    -0.6372     0.0073 H       
  31 H31            4.1977     0.1147    -0.0377 H       
  32 H32            1.1158     3.9909     0.0125 H       
  33 H33            1.1772    -3.7482    -0.0298 H       
  34 H34            5.4205     3.8750    -1.6733 H       
  35 H35            8.3037     1.5174     1.5704 H       
  36 H36            5.8728     1.1458     1.5985 H       
  37 H37           10.0167     2.6680     1.9018 H       
  38 H38           10.2155     1.3258     0.7497 H       
  39 H39           11.8290     4.7859     0.3115 H       
  40 H40           12.1561     2.5583    -0.2837 H       
  41 H41           12.0842     1.6602     2.5995 H       
  42 H42           13.1281     1.0922     1.2613 H       
  43 H43           13.7292     3.1249     3.2611 H       
  44 H44           14.7732     2.5568     1.9229 H       
  45 H45           14.0959     4.2854     0.4964 H       
  46 H46           13.7132     5.1184     2.0347 H       
  47 H47            7.6438     5.7271    -3.4467 H       
  48 H48            6.5522     4.3230    -3.3748 H       
  49 H49            6.3529     5.6652    -2.2229 H       
@<TRIPOS>BOND
   1    1    2 1
   2    1    9 1
   3    1   29 1
   4    2    3 2
   5    2   30 1
   6    3    4 1
   7    3   10 1
   8    4    5 ar
   9    4    9 ar
  10    5    6 ar
  11    5   31 1
  12    6    7 ar
  13    6   13 1
  14    7    8 ar
  15    7   28 1
  16    8    9 ar
  17    8   32 1
  18   10   11 2
  19   10   12 1
  20   12   33 1
  21   13   14 ar
  22   13   18 ar
  23   14   15 ar
  24   14   34 1
  25   15   16 ar
  26   15   26 1
  27   16   17 ar
  28   16   19 1
  29   17   18 ar
  30   17   35 1
  31   18   36 1
  32   19   20 1
  33   20   22 1
  34   20   37 1
  35   20   38 1
  36   21   22 1
  37   21   25 1
  38   21   39 1
  39   22   23 1
  40   22   40 1
  41   23   24 1
  42   23   41 1
  43   23   42 1
  44   24   25 1
  45   24   43 1
  46   24   44 1
  47   25   45 1
  48   25   46 1
  49   26   27 1
  50   27   47 1
  51   27   48 1
  52   27   49 1

#	End of record

