#	Name: ASD01913325
#	Creating user name:	WinNT
#	Creation time:	15. 06. 2019 20:01

#	Modifying user name:	WinNT
#	Modification time:	15. 06. 2019 20:01

#	Program:	/corina/corina34_cracker 3.40 0067  02.08.2006

@<TRIPOS>MOLECULE
ASD01913325
  38   40    0    0    0
SMALL
NO_CHARGES


@<TRIPOS>ATOM
   1 C1            -0.0169     1.3928     0.0097 C.ar    
   2 C2             0.0021    -0.0041     0.0020 C.ar    
   3 C3             1.2387    -0.6635    -0.0134 C.ar    
   4 C4             2.3900     0.1030    -0.0203 C.ar    
   5 C5             2.2856     1.4827    -0.0119 C.ar    
   6 N6             1.1081     2.0773     0.0026 N.ar    
   7 C7             3.5383     2.3205    -0.0189 C.3     
   8 C8            -1.2208    -0.7492     0.0102 C.1     
   9 C9            -2.2233    -1.3601     0.0169 C.1     
  10 C10           -3.4461    -2.1052     0.0251 C.ar    
  11 C11           -3.4170    -3.5023     0.0173 C.ar    
  12 C12           -4.5988    -4.2132     0.0253 C.ar    
  13 C13           -5.8113    -3.5464     0.0404 C.ar    
  14 C14           -5.8479    -2.1632     0.0477 C.ar    
  15 C15           -4.6742    -1.4389     0.0467 C.ar    
  16 C16            4.0189     2.5072    -1.4594 C.3     
  17 N17            3.2538     3.6293     0.5745 N.am    
  18 C18            3.9084     4.1882     1.7674 C.3     
  19 C19            3.2388     5.5650     1.9422 C.3     
  20 O20            2.2872     5.6367     0.8413 O.3     
  21 C21            2.3590     4.5151     0.1158 C.2     
  22 O22            1.6698     4.3142    -0.8646 O.2     
  23 H23           -0.9619     1.9156     0.0170 H       
  24 H24            1.2913    -1.7422    -0.0193 H       
  25 H25            3.3606    -0.3705    -0.0318 H       
  26 H26            4.3136     1.8195     0.5607 H       
  27 H27           -2.4715    -4.0240     0.0048 H       
  28 H28           -4.5779    -5.2930     0.0193 H       
  29 H29           -6.7335    -4.1084     0.0462 H       
  30 H30           -6.7979    -1.6495     0.0592 H       
  31 H31           -4.7042    -0.3593     0.0528 H       
  32 H32            3.2436     3.0082    -2.0390 H       
  33 H33            4.9250     3.1131    -1.4645 H       
  34 H34            4.2306     1.5334    -1.9009 H       
  35 H35            3.7216     3.5583     2.6371 H       
  36 H36            4.9792     4.3019     1.5986 H       
  37 H37            2.7203     5.6189     2.8995 H       
  38 H38            3.9776     6.3622     1.8613 H       
@<TRIPOS>BOND
   1    1    2 ar
   2    1    6 ar
   3    1   23 1
   4    2    3 ar
   5    2    8 1
   6    3    4 ar
   7    3   24 1
   8    4    5 ar
   9    4   25 1
  10    5    6 ar
  11    5    7 1
  12    7   16 1
  13    7   17 1
  14    7   26 1
  15    8    9 3
  16    9   10 1
  17   10   11 ar
  18   10   15 ar
  19   11   12 ar
  20   11   27 1
  21   12   13 ar
  22   12   28 1
  23   13   14 ar
  24   13   29 1
  25   14   15 ar
  26   14   30 1
  27   15   31 1
  28   16   32 1
  29   16   33 1
  30   16   34 1
  31   17   18 1
  32   17   21 am
  33   18   19 1
  34   18   35 1
  35   18   36 1
  36   19   20 1
  37   19   37 1
  38   19   38 1
  39   20   21 1
  40   21   22 2

#	End of record

