#	Name: ASD01913550
#	Creating user name:	WinNT
#	Creation time:	15. 06. 2019 20:01

#	Modifying user name:	WinNT
#	Modification time:	15. 06. 2019 20:01

#	Program:	/corina/corina34_cracker 3.40 0067  02.08.2006

@<TRIPOS>MOLECULE
ASD01913550
  37   39    0    0    0
SMALL
NO_CHARGES


@<TRIPOS>ATOM
   1 C1             0.5546     0.2708     1.3518 C.ar    
   2 C2             0.0033    -0.0127     0.1063 C.ar    
   3 C3             0.6581     0.4255    -1.0359 C.ar    
   4 N4             1.7865     1.1010    -0.9470 N.ar    
   5 C5             2.3353     1.3862     0.2178 C.ar    
   6 C6             1.7421     0.9835     1.3994 C.ar    
   7 C7            -1.0860    -2.0599    -0.1027 C.ar    
   8 C8             0.1374    -2.7175    -0.0104 C.ar    
   9 C9             0.1752    -4.0958    -0.1239 C.ar    
  10 N10           -0.9259    -4.7898    -0.3176 N.ar    
  11 C11           -2.1146    -4.2042    -0.4119 C.ar    
  12 C12           -2.2335    -2.8224    -0.3074 C.ar    
  13 C13           -3.3246    -5.0306    -0.6302 C.2     
  14 N14           -3.2164    -6.3701    -0.7323 N.am    
  15 O15           -1.1597    -0.7092     0.0098 O.3     
  16 C16           -4.3580    -7.1497    -0.9383 C.2     
  17 O17           -4.4147    -4.5006    -0.7172 O.2     
  18 N18           -4.3800    -8.4564    -1.0533 N.2     
  19 N19           -5.7216    -8.8232    -1.2476 N.pl3   
  20 C20           -6.4336    -7.6836    -1.2360 C.2     
  21 N21           -5.6073    -6.6872    -1.0446 N.2     
  22 C22           -6.2423   -10.1807    -1.4276 C.3     
  23 C23           -7.9267    -7.5728    -1.4079 C.3     
  24 H24            0.0667    -0.0527     2.2594 H       
  25 H25            0.2391     0.2106    -2.0079 H       
  26 H26            3.2611     1.9416     0.2487 H       
  27 H27            2.1985     1.2218     2.3488 H       
  28 H28            1.0474    -2.1577     0.1478 H       
  29 H29            1.1224    -4.6097    -0.0528 H       
  30 H30           -3.2006    -2.3480    -0.3843 H       
  31 H31           -2.3462    -6.7931    -0.6628 H       
  32 H32           -6.4951   -10.6046    -0.4558 H       
  33 H33           -7.1345   -10.1477    -2.0528 H       
  34 H34           -5.4846   -10.7997    -1.9080 H       
  35 H35           -8.4102    -7.6337    -0.4330 H       
  36 H36           -8.1688    -6.6179    -1.8746 H       
  37 H37           -8.2809    -8.3866    -2.0407 H       
@<TRIPOS>BOND
   1    1    2 ar
   2    1    6 ar
   3    1   24 1
   4    2    3 ar
   5    2   15 1
   6    3    4 ar
   7    3   25 1
   8    4    5 ar
   9    5    6 ar
  10    5   26 1
  11    6   27 1
  12    7    8 ar
  13    7   12 ar
  14    7   15 1
  15    8    9 ar
  16    8   28 1
  17    9   10 ar
  18    9   29 1
  19   10   11 ar
  20   11   12 ar
  21   11   13 1
  22   12   30 1
  23   13   14 am
  24   13   17 2
  25   14   16 1
  26   14   31 1
  27   16   18 2
  28   16   21 1
  29   18   19 1
  30   19   20 1
  31   19   22 1
  32   20   21 2
  33   20   23 1
  34   22   32 1
  35   22   33 1
  36   22   34 1
  37   23   35 1
  38   23   36 1
  39   23   37 1

#	End of record

