#	Name: ASD02030773
#	Creating user name:	WinNT
#	Creation time:	15. 06. 2019 20:16

#	Modifying user name:	WinNT
#	Modification time:	15. 06. 2019 20:16

#	Program:	/corina/corina34_cracker 3.40 0067  02.08.2006

@<TRIPOS>MOLECULE
ASD02030773
  38   41    0    0    0
SMALL
NO_CHARGES


@<TRIPOS>ATOM
   1 F1             0.0019    -0.0040    -0.0100 F       
   2 C2            -0.0163     1.3468     0.0034 C.2     
   3 C3            -1.1984     2.0066     0.0299 C.2     
   4 C4            -2.4875     1.2263     0.0443 C.3     
   5 H5            -3.0866     1.3247     0.9495 H       
   6 C6            -2.5019    -0.1274    -0.6687 C.3     
   7 C7            -3.2330     1.0691    -1.2826 C.3     
   8 H8            -2.7911     1.5302    -2.1658 H       
   9 C9            -4.7043     1.0619    -1.2388 C.1     
  10 N10           -5.8398     1.0563    -1.2050 N.1     
  11 N11           -1.2349     3.3686     0.0442 N.am    
  12 C12           -2.4256     4.0045     0.0711 C.2     
  13 O13           -3.4679     3.3687     0.0832 O.2     
  14 C14           -2.4466     5.4037     0.0854 C.2     
  15 C15           -1.2477     6.0901     0.0715 C.2     
  16 C16           -1.2426     7.5970     0.0864 C.3     
  17 N17           -1.0968     8.0712     1.4649 N.pl3   
  18 N18           -2.1412     8.3348     2.3605 N.2     
  19 C19           -1.6195     8.7385     3.4904 C.2     
  20 C20           -0.2278     8.7452     3.3518 C.2     
  21 C21            0.0678     8.3257     2.0981 C.2     
  22 Cl22           1.6585     8.1500     1.4256 Cl      
  23 C23           -2.3861     9.1292     4.7276 C.3     
  24 F24           -3.7493     8.8870     4.5275 F       
  25 F25           -1.9330     8.3743     5.8148 F       
  26 F26           -2.1875    10.4891     4.9892 F       
  27 N27           -0.1037     5.4251     0.0456 N.2     
  28 C28           -0.0762     4.0933     0.0319 C.2     
  29 C29            1.1621     3.4262     0.0039 C.2     
  30 C30            1.1901     2.0639    -0.0043 C.2     
  31 H31           -1.5789    -0.4535    -1.1481 H       
  32 H32           -3.1106    -0.9195    -0.2327 H       
  33 H33           -3.3848     5.9383     0.1066 H       
  34 H34           -0.4099     7.9635    -0.5139 H       
  35 H35           -2.1801     7.9676    -0.3281 H       
  36 H36            0.4851     9.0307     4.1111 H       
  37 H37            2.0835     3.9894    -0.0064 H       
  38 H38            2.1341     1.5396    -0.0209 H       
@<TRIPOS>BOND
   1    1    2 1
   2    2   30 1
   3    2    3 2
   4    3    4 1
   5    3   11 1
   6    4    5 1
   7    4    7 1
   8    4    6 1
   9    6    7 1
  10    6   31 1
  11    6   32 1
  12    7    8 1
  13    7    9 1
  14    9   10 3
  15   11   28 1
  16   11   12 am
  17   12   13 2
  18   12   14 1
  19   14   15 2
  20   14   33 1
  21   15   16 1
  22   15   27 1
  23   16   17 1
  24   16   34 1
  25   16   35 1
  26   17   21 1
  27   17   18 1
  28   18   19 2
  29   19   20 1
  30   19   23 1
  31   20   21 2
  32   20   36 1
  33   21   22 1
  34   23   24 1
  35   23   25 1
  36   23   26 1
  37   27   28 2
  38   28   29 1
  39   29   30 2
  40   29   37 1
  41   30   38 1

#	End of record

