#	Name: ASD03091797
#	Creating user name:	WinNT
#	Creation time:	15. 06. 2019 20:31

#	Modifying user name:	WinNT
#	Modification time:	15. 06. 2019 20:31

#	Program:	/corina/corina34_cracker 3.40 0067  02.08.2006

@<TRIPOS>MOLECULE
ASD03091797
  32   34    0    0    0
SMALL
NO_CHARGES


@<TRIPOS>ATOM
   1 C1            -0.0188     1.5354     0.0105 C.3     
   2 C2             0.0021    -0.0041     0.0020 C.3     
   3 N3             0.0279    -0.4602     1.4021 N.3     
   4 C4             0.0781     0.7235     2.2834 C.3     
   5 C5            -0.5170     1.8802     1.4507 C.3     
   6 C6             0.2659     3.1734     1.7649 C.3     
   7 N7             1.5706     3.0168     1.1019 N.am    
   8 C8             1.4290     2.0576    -0.0005 C.3     
   9 C9             2.7084     3.6502     1.4495 C.2     
  10 O10            2.7100     4.4287     2.3848 O.2     
  11 C11            3.9444     3.4012     0.7005 C.2     
  12 C12            5.1600     3.9728     0.9455 C.2     
  13 O13            4.0810     2.5628    -0.3477 O.3     
  14 C14            5.3493     2.5910    -0.7772 C.2     
  15 C15            6.0506     3.4503    -0.0053 C.2     
  16 C16            5.4828     4.9712     2.0272 C.3     
  17 H17           -0.6324     1.9593    -0.7844 H       
  18 H18           -0.8919    -0.3828    -0.4934 H       
  19 H19            0.8918    -0.3585    -0.5184 H       
  20 H20           -0.7764    -1.0325     1.6108 H       
  21 H21           -0.5221     0.5543     3.1774 H       
  22 H22            1.1093     0.9470     2.5570 H       
  23 H23           -1.5995     1.9734     1.5378 H       
  24 H24           -0.2598     4.0393     1.3624 H       
  25 H25            0.4006     3.2803     2.8412 H       
  26 H26            2.1216     1.2279     0.1411 H       
  27 H27            1.6353     2.5530    -0.9493 H       
  28 H28            5.7467     2.0192    -1.6026 H       
  29 H29            7.0992     3.6902    -0.1020 H       
  30 H30            5.7933     4.4428     2.9285 H       
  31 H31            6.2900     5.6223     1.6915 H       
  32 H32            4.5987     5.5708     2.2438 H       
@<TRIPOS>BOND
   1    1    2 1
   2    1    8 1
   3    1    5 1
   4    1   17 1
   5    2    3 1
   6    2   18 1
   7    2   19 1
   8    3    4 1
   9    3   20 1
  10    4    5 1
  11    4   21 1
  12    4   22 1
  13    5    6 1
  14    5   23 1
  15    6    7 1
  16    6   24 1
  17    6   25 1
  18    7    8 1
  19    7    9 am
  20    8   26 1
  21    8   27 1
  22    9   10 2
  23    9   11 1
  24   11   12 2
  25   11   13 1
  26   12   16 1
  27   12   15 1
  28   13   14 1
  29   14   15 2
  30   14   28 1
  31   15   29 1
  32   16   30 1
  33   16   31 1
  34   16   32 1

#	End of record

