#	Name: ASD01882956
#	Creating user name:	WinNT
#	Creation time:	15. 06. 2019 19:45

#	Modifying user name:	WinNT
#	Modification time:	15. 06. 2019 19:45

#	Program:	/corina/corina34_cracker 3.40 0067  02.08.2006

@<TRIPOS>MOLECULE
ASD01882956
  53   56    0    0    0
SMALL
NO_CHARGES


@<TRIPOS>ATOM
   1 C1            -0.0072     1.1280     0.0698 C.2     
   2 C2             0.1157    -0.3270    -0.1368 C.ar    
   3 C3             1.3944    -0.8730    -0.3408 C.ar    
   4 N4             2.5065    -0.0564    -0.3464 N.pl3   
   5 C5             2.4335     1.2702    -0.1620 C.2     
   6 C6             1.2338     1.9180     0.0479 C.2     
   7 C7             3.7637    -0.6368    -0.5527 C.ar    
   8 C8             4.4523    -0.4021    -1.7358 C.ar    
   9 C9             5.6925    -0.9751    -1.9371 C.ar    
  10 C10            6.2495    -1.7838    -0.9604 C.ar    
  11 C11            5.5645    -2.0192     0.2200 C.ar    
  12 C12            4.3267    -1.4435     0.4278 C.ar    
  13 C13           -1.0074    -1.1538    -0.1314 C.ar    
  14 C14           -0.8559    -2.5089    -0.3272 C.ar    
  15 C15            0.4056    -3.0502    -0.5283 C.ar    
  16 C16            1.5238    -2.2451    -0.5370 C.ar    
  17 O17           -1.0919     1.6547     0.2463 O.2     
  18 C18            1.1958     3.3755     0.2457 C.2     
  19 O19            2.2331     4.0058     0.3252 O.2     
  20 N20            0.0116     4.0123     0.3387 N.am    
  21 F21            7.4625    -2.3441    -1.1597 F       
  22 C22           -2.0657    -3.4075    -0.3224 C.3     
  23 N23           -2.6459    -3.4548    -1.6711 N.3     
  24 C24           -1.6984    -4.0478    -2.6337 C.3     
  25 C25           -3.1632    -2.2197    -2.0333 C.3     
  26 C26           -4.0602    -2.2893    -3.2836 C.3     
  27 C27           -2.4968    -4.8633    -3.6240 C.3     
  28 C28           -3.1914    -2.2312    -4.5170 C.3     
  29 S29           -2.8128    -3.9041    -5.1394 S.o2    
  30 O30           -1.6060    -3.8398    -5.8868 O.2     
  31 O31           -3.9801    -4.4237    -5.7613 O.2     
  32 H32            3.3444     1.8503    -0.1777 H       
  33 H33            4.0180     0.2279    -2.4980 H       
  34 H34            6.2283    -0.7928    -2.8569 H       
  35 H35            6.0005    -2.6504     0.9802 H       
  36 H36            3.7948    -1.6236     1.3503 H       
  37 H37           -1.9901    -0.7341     0.0258 H       
  38 H38            0.5123    -4.1141    -0.6804 H       
  39 H39            2.5003    -2.6786    -0.6950 H       
  40 H40           -0.8138     3.5029     0.3452 H       
  41 H41           -0.0153     4.9801     0.3991 H       
  42 H42           -1.7711    -4.4119    -0.0182 H       
  43 H43           -2.8049    -3.0180     0.3777 H       
  44 H44           -1.1593    -3.2574    -3.1559 H       
  45 H45           -0.9931    -4.6919    -2.1085 H       
  46 H46           -3.7489    -1.8267    -1.2023 H       
  47 H47           -2.3368    -1.5371    -2.2314 H       
  48 H48           -4.6225    -3.2230    -3.2774 H       
  49 H49           -4.7509    -1.4461    -3.2841 H       
  50 H50           -1.9394    -5.7647    -3.8792 H       
  51 H51           -3.4479    -5.1457    -3.1727 H       
  52 H52           -3.7112    -1.6704    -5.2937 H       
  53 H53           -2.2592    -1.7215    -4.2734 H       
@<TRIPOS>BOND
   1    1    2 1
   2    1    6 1
   3    1   17 2
   4    2    3 ar
   5    2   13 ar
   6    3    4 1
   7    3   16 ar
   8    4    5 1
   9    4    7 1
  10    5    6 2
  11    5   32 1
  12    6   18 1
  13    7    8 ar
  14    7   12 ar
  15    8    9 ar
  16    8   33 1
  17    9   10 ar
  18    9   34 1
  19   10   11 ar
  20   10   21 1
  21   11   12 ar
  22   11   35 1
  23   12   36 1
  24   13   14 ar
  25   13   37 1
  26   14   15 ar
  27   14   22 1
  28   15   16 ar
  29   15   38 1
  30   16   39 1
  31   18   19 2
  32   18   20 am
  33   20   40 1
  34   20   41 1
  35   22   23 1
  36   22   42 1
  37   22   43 1
  38   23   25 1
  39   23   24 1
  40   24   27 1
  41   24   44 1
  42   24   45 1
  43   25   26 1
  44   25   46 1
  45   25   47 1
  46   26   28 1
  47   26   48 1
  48   26   49 1
  49   27   29 1
  50   27   50 1
  51   27   51 1
  52   28   29 1
  53   28   52 1
  54   28   53 1
  55   29   30 2
  56   29   31 2

#	End of record

