#	Name: ASD02030334
#	Creating user name:	WinNT
#	Creation time:	15. 06. 2019 20:15

#	Modifying user name:	WinNT
#	Modification time:	15. 06. 2019 20:15

#	Program:	/corina/corina34_cracker 3.40 0067  02.08.2006

@<TRIPOS>MOLECULE
ASD02030334
  69   73    0    0    0
SMALL
NO_CHARGES


@<TRIPOS>ATOM
   1 N1            -0.1406     1.4510    -0.8332 N.am    
   2 C2            -0.1546    -0.0158    -0.7423 C.3     
   3 C3            -0.9290    -0.4214     0.5178 C.3     
   4 N4            -2.2084     0.3016     0.5358 N.am    
   5 C5            -2.1944     1.7683     0.4449 C.3     
   6 C6            -1.4197     2.1743    -0.8096 C.3     
   7 C7             1.0247     2.1211    -0.9307 C.2     
   8 C8             2.3070     1.3960    -0.8069 C.2     
   9 N9             3.5026     1.9423    -0.7513 N.2     
  10 N10            2.4567     0.0611    -0.7253 N.2     
  11 C11            3.7390    -0.1812    -0.6266 C.2     
  12 N12            4.3805     1.0052    -0.6442 N.pl3   
  13 O13            1.0213     3.3218    -1.1205 O.2     
  14 C14           -3.3737    -0.3686     0.6333 C.2     
  15 C15           -3.3794    -1.8468     0.6221 C.ar    
  16 O16           -4.4200     0.2426     0.7306 O.2     
  17 C17           -1.1585     3.6817    -0.7865 C.3     
  18 C18           -2.2306     1.8091    -2.0545 C.3     
  19 C19            5.7675     1.1878    -0.5605 C.ar    
  20 C20            6.3033     2.4680    -0.5899 C.ar    
  21 C21            7.6720     2.6448    -0.5067 C.ar    
  22 C22            8.5067     1.5468    -0.3947 C.ar    
  23 C23            7.9748     0.2707    -0.3652 C.ar    
  24 C24            6.6080     0.0886    -0.4422 C.ar    
  25 N25           -2.2908    -2.5077     1.0305 N.ar    
  26 C26           -2.2250    -3.8198     1.0473 C.ar    
  27 C27           -3.3307    -4.5908     0.6237 C.ar    
  28 C28           -4.5024    -3.9216     0.1840 C.ar    
  29 C29           -4.5124    -2.5151     0.1949 C.ar    
  30 O30           -1.0943    -4.4349     1.4714 O.3     
  31 C31           -0.0148    -3.5949     1.8850 C.3     
  32 Cl32           8.3438     4.2451    -0.5433 Cl      
  33 C33           -3.2970    -5.9909     0.6273 C.ar    
  34 C34           -4.3913    -6.6943     0.2080 C.ar    
  35 C35           -5.5491    -6.0328    -0.2268 C.ar    
  36 C36           -5.6108    -4.6680    -0.2408 C.ar    
  37 O37           -6.6219    -6.7578    -0.6390 O.3     
  38 C38           -7.7717    -6.0271    -1.0704 C.3     
  39 O39           -4.3570    -8.0528     0.2122 O.3     
  40 C40           -3.1504    -8.6699     0.6654 C.3     
  41 H41           -0.6443    -0.4322    -1.6226 H       
  42 H42            0.8679    -0.3882    -0.6790 H       
  43 H43           -1.1158    -1.4952     0.5026 H       
  44 H44           -0.3492    -0.1609     1.4033 H       
  45 H45           -3.2169     2.1407     0.3816 H       
  46 H46           -1.7047     2.1847     1.3252 H       
  47 H47            4.1997    -1.1544    -0.5431 H       
  48 H48           -0.3514     3.8999    -0.0872 H       
  49 H49           -0.8753     4.0167    -1.7843 H       
  50 H50           -2.0629     4.2023    -0.4715 H       
  51 H51           -3.1856     2.3341    -2.0330 H       
  52 H52           -1.6765     2.0994    -2.9471 H       
  53 H53           -2.4075     0.7337    -2.0704 H       
  54 H54            5.6519     3.3249    -0.6780 H       
  55 H55            9.5757     1.6868    -0.3305 H       
  56 H56            8.6288    -0.5843    -0.2781 H       
  57 H57            6.1936    -0.9084    -0.4188 H       
  58 H58           -5.3844    -1.9679    -0.1318 H       
  59 H59            0.2912    -2.9605     1.0531 H       
  60 H60           -0.3387    -2.9707     2.7178 H       
  61 H61            0.8263    -4.2126     2.1995 H       
  62 H62           -2.4111    -6.5119     0.9592 H       
  63 H63           -6.5069    -4.1675    -0.5771 H       
  64 H64           -7.5036    -5.3940    -1.9162 H       
  65 H65           -8.5533    -6.7244    -1.3719 H       
  66 H66           -8.1352    -5.4055    -0.2521 H       
  67 H67           -2.3217    -8.3579     0.0296 H       
  68 H68           -2.9524    -8.3688     1.6941 H       
  69 H69           -3.2565    -9.7537     0.6180 H       
@<TRIPOS>BOND
   1    1    2 1
   2    1    7 am
   3    1    6 1
   4    2    3 1
   5    2   41 1
   6    2   42 1
   7    3    4 1
   8    3   43 1
   9    3   44 1
  10    4    5 1
  11    4   14 am
  12    5    6 1
  13    5   45 1
  14    5   46 1
  15    6   17 1
  16    6   18 1
  17    7    8 1
  18    7   13 2
  19    8    9 2
  20    8   10 1
  21    9   12 1
  22   10   11 2
  23   11   12 1
  24   11   47 1
  25   12   19 1
  26   14   15 1
  27   14   16 2
  28   15   25 ar
  29   15   29 ar
  30   17   48 1
  31   17   49 1
  32   17   50 1
  33   18   51 1
  34   18   52 1
  35   18   53 1
  36   19   20 ar
  37   19   24 ar
  38   20   21 ar
  39   20   54 1
  40   21   22 ar
  41   21   32 1
  42   22   23 ar
  43   22   55 1
  44   23   24 ar
  45   23   56 1
  46   24   57 1
  47   25   26 ar
  48   26   27 ar
  49   26   30 1
  50   27   28 ar
  51   27   33 ar
  52   28   29 ar
  53   28   36 ar
  54   29   58 1
  55   30   31 1
  56   31   59 1
  57   31   60 1
  58   31   61 1
  59   33   34 ar
  60   33   62 1
  61   34   35 ar
  62   34   39 1
  63   35   36 ar
  64   35   37 1
  65   36   63 1
  66   37   38 1
  67   38   64 1
  68   38   65 1
  69   38   66 1
  70   39   40 1
  71   40   67 1
  72   40   68 1
  73   40   69 1

#	End of record

