#	Name: ASD07930857
#	Creating user name:	WinNT
#	Creation time:	15. 06. 2019 21:13

#	Modifying user name:	WinNT
#	Modification time:	15. 06. 2019 21:13

#	Program:	/corina/corina34_cracker 3.40 0067  02.08.2006

@<TRIPOS>MOLECULE
ASD07930857
  63   67    0    0    0
SMALL
NO_CHARGES


@<TRIPOS>ATOM
   1 C1            -0.0162     1.3465     0.0094 C.2     
   2 N2             0.0021    -0.0041     0.0020 N.am    
   3 N3             1.2088    -0.7069    -0.0133 N.2     
   4 C4             2.3648    -0.1096    -0.0211 C.2     
   5 C5             2.4493     1.2996    -0.0143 C.ar    
   6 C6             3.7317     1.9981    -0.0224 C.ar    
   7 C7             3.7334     3.4144    -0.0143 C.ar    
   8 C8             2.5108     4.1177     0.0015 C.ar    
   9 C9             1.3250     3.4637     0.0098 C.ar    
  10 C10            1.2655     2.0608     0.0010 C.ar    
  11 C11            4.9599     4.0962    -0.0219 C.ar    
  12 C12            6.1260     3.3905    -0.0368 C.ar    
  13 C13            6.1205     1.9995    -0.0447 C.ar    
  14 C14            4.9458     1.3051    -0.0372 C.ar    
  15 O15           -1.0711     1.9567     0.0178 O.2     
  16 C16            2.5243     5.6246     0.0100 C.3     
  17 C17            1.5038     6.3816    -2.1526 C.ar    
  18 C18            2.6389     6.1339    -1.4038 C.ar    
  19 C19            3.8841     6.3602    -1.9695 C.ar    
  20 C20            3.9412     6.8294    -3.2732 C.ar    
  21 C21            2.7636     7.0541    -3.9602 C.ar    
  22 N22            1.5961     6.8272    -3.3901 N.ar    
  23 C23            2.8137     7.5640    -5.3775 C.3     
  24 C24            1.3892     7.7289    -5.9108 C.3     
  25 C25            3.5295     8.9158    -5.4081 C.3     
  26 O26            3.5232     6.6307    -6.1946 O.3     
  27 C27            3.6287     7.0209    -7.5652 C.3     
  28 C28           -2.6414    -2.4443    -1.1871 C.3     
  29 C29           -1.3540    -1.6177    -1.2434 C.3     
  30 C30           -1.2630    -0.7428     0.0106 C.3     
  31 C31           -1.3244    -1.6395     1.2510 C.3     
  32 C32           -2.6129    -2.4652     1.2109 C.3     
  33 O33           -2.6486    -3.2317     0.0054 O.3     
  34 O34           -1.3133    -0.8285     2.4275 O.3     
  35 H35            3.2700    -0.6986    -0.0326 H       
  36 H36            0.4069     4.0323     0.0223 H       
  37 H37            4.9798     5.1760    -0.0164 H       
  38 H38            7.0678     3.9191    -0.0430 H       
  39 H39            7.0575     1.4625    -0.0568 H       
  40 H40            4.9540     0.2251    -0.0430 H       
  41 H41            1.6005     5.9938     0.4554 H       
  42 H42            3.3751     5.9771     0.5932 H       
  43 H43            0.5300     6.2035    -1.7207 H       
  44 H44            4.7881     6.1759    -1.4082 H       
  45 H45            4.8942     7.0171    -3.7455 H       
  46 H46            0.8481     8.4408    -5.2876 H       
  47 H47            1.4255     8.0977    -6.9359 H       
  48 H48            0.8793     6.7658    -5.8890 H       
  49 H49            4.5444     8.7983    -5.0281 H       
  50 H50            3.5658     9.2846    -6.4332 H       
  51 H51            2.9884     9.6277    -4.7848 H       
  52 H52            2.6308     7.1272    -7.9906 H       
  53 H53            4.1556     7.9728    -7.6324 H       
  54 H54            4.1803     6.2605    -8.1181 H       
  55 H55           -3.5026    -1.7761    -1.1867 H       
  56 H56           -2.6905    -3.1003    -2.0562 H       
  57 H57           -0.4937    -2.2858    -1.2846 H       
  58 H58           -1.3668    -0.9836    -2.1298 H       
  59 H59           -2.0966    -0.0407     0.0266 H       
  60 H60           -0.4635    -2.3080     1.2601 H       
  61 H61           -2.6414    -3.1363     2.0694 H       
  62 H62           -3.4738    -1.7973     1.2427 H       
  63 H63           -1.3502    -1.3317     3.2525 H       
@<TRIPOS>BOND
   1    1    2 am
   2    1   10 1
   3    1   15 2
   4    2    3 1
   5    2   30 1
   6    3    4 2
   7    4    5 1
   8    4   35 1
   9    5    6 ar
  10    5   10 ar
  11    6    7 ar
  12    6   14 ar
  13    7    8 ar
  14    7   11 ar
  15    8    9 ar
  16    8   16 1
  17    9   10 ar
  18    9   36 1
  19   11   12 ar
  20   11   37 1
  21   12   13 ar
  22   12   38 1
  23   13   14 ar
  24   13   39 1
  25   14   40 1
  26   16   18 1
  27   16   41 1
  28   16   42 1
  29   17   18 ar
  30   17   22 ar
  31   17   43 1
  32   18   19 ar
  33   19   20 ar
  34   19   44 1
  35   20   21 ar
  36   20   45 1
  37   21   22 ar
  38   21   23 1
  39   23   24 1
  40   23   25 1
  41   23   26 1
  42   24   46 1
  43   24   47 1
  44   24   48 1
  45   25   49 1
  46   25   50 1
  47   25   51 1
  48   26   27 1
  49   27   52 1
  50   27   53 1
  51   27   54 1
  52   28   29 1
  53   28   33 1
  54   28   55 1
  55   28   56 1
  56   29   30 1
  57   29   57 1
  58   29   58 1
  59   30   31 1
  60   30   59 1
  61   31   32 1
  62   31   34 1
  63   31   60 1
  64   32   33 1
  65   32   61 1
  66   32   62 1
  67   34   63 1

#	End of record

