#	Name: ASD01209376
#	Creating user name:	WinNT
#	Creation time:	15. 06. 2019 19:11

#	Modifying user name:	WinNT
#	Modification time:	15. 06. 2019 19:11

#	Program:	/corina/corina34_cracker 3.40 0067  02.08.2006

@<TRIPOS>MOLECULE
ASD01209376
  38   39    0    0    0
SMALL
NO_CHARGES


@<TRIPOS>ATOM
   1 C1             0.7223     1.4575    -1.5028 C.2     
   2 C2             0.6145    -0.0370    -1.3424 C.3     
   3 O3             1.4702     2.0888    -0.7943 O.2     
   4 O4            -0.0085     2.0867    -2.4365 O.3     
   5 S5             1.7231    -0.5842    -0.0149 S.3     
   6 N6             2.5898    -3.1078    -0.4226 N.am    
   7 C7             1.4160    -2.3704     0.0629 C.3     
   8 C8             1.2210    -2.8037     1.4972 C.2     
   9 C9             2.1801    -3.6820     1.7720 C.2     
  10 C10            3.0294    -3.8754     0.5923 C.2     
  11 O11            3.9895    -4.6200     0.5386 O.2     
  12 C12            0.1435    -2.3296     2.4381 C.3     
  13 C13            3.1710    -3.0277    -1.7650 C.3     
  14 C14            4.2135    -1.9400    -1.7970 C.ar    
  15 C15            5.5300    -2.2367    -1.4958 C.ar    
  16 C16            6.4875    -1.2413    -1.5244 C.ar    
  17 C17            6.1273     0.0568    -1.8556 C.ar    
  18 C18            4.8057     0.3519    -2.1574 C.ar    
  19 C19            3.8530    -0.6481    -2.1329 C.ar    
  20 O20            7.0673     1.0378    -1.8840 O.3     
  21 C21            6.6245     2.3508    -2.2334 C.3     
  22 H22           -0.4123    -0.3023    -1.0907 H       
  23 H23            0.8972    -0.5240    -2.2757 H       
  24 H24            0.0945     3.0460    -2.5017 H       
  25 H25            0.5388    -2.6268    -0.5311 H       
  26 H26            2.3136    -4.1789     2.7216 H       
  27 H27           -0.7571    -2.9251     2.2888 H       
  28 H28            0.4855    -2.4397     3.4672 H       
  29 H29           -0.0772    -1.2809     2.2389 H       
  30 H30            3.6334    -3.9817    -2.0182 H       
  31 H31            2.3869    -2.8009    -2.4874 H       
  32 H32            5.8098    -3.2473    -1.2377 H       
  33 H33            7.5156    -1.4735    -1.2888 H       
  34 H34            4.5228     1.3617    -2.4155 H       
  35 H35            2.8249    -0.4199    -2.3724 H       
  36 H36            6.1890     2.3335    -3.2325 H       
  37 H37            5.8748     2.6843    -1.5160 H       
  38 H38            7.4720     3.0361    -2.2184 H       
@<TRIPOS>BOND
   1    1    2 1
   2    1    3 2
   3    1    4 1
   4    2    5 1
   5    2   22 1
   6    2   23 1
   7    4   24 1
   8    5    7 1
   9    6    7 1
  10    6   10 am
  11    6   13 1
  12    7    8 1
  13    7   25 1
  14    8    9 2
  15    8   12 1
  16    9   10 1
  17    9   26 1
  18   10   11 2
  19   12   27 1
  20   12   28 1
  21   12   29 1
  22   13   14 1
  23   13   30 1
  24   13   31 1
  25   14   15 ar
  26   14   19 ar
  27   15   16 ar
  28   15   32 1
  29   16   17 ar
  30   16   33 1
  31   17   18 ar
  32   17   20 1
  33   18   19 ar
  34   18   34 1
  35   19   35 1
  36   20   21 1
  37   21   36 1
  38   21   37 1
  39   21   38 1

#	End of record

