#	Name: ASD01816859
#	Creating user name:	WinNT
#	Creation time:	15. 06. 2019 19:36

#	Modifying user name:	WinNT
#	Modification time:	15. 06. 2019 19:36

#	Program:	/corina/corina34_cracker 3.40 0067  02.08.2006

@<TRIPOS>MOLECULE
ASD01816859
  60   64    0    0    0
SMALL
NO_CHARGES


@<TRIPOS>ATOM
   1 C1            -0.0007     1.4061     0.0034 C.ar    
   2 C2             0.0119     0.0123    -0.0041 C.ar    
   3 C3             1.1863    -0.6767    -0.0170 C.ar    
   4 C4             2.4026     0.0241    -0.0230 C.ar    
   5 C5             2.3931     1.4436    -0.0155 C.ar    
   6 C6             1.1579     2.1189    -0.0021 C.ar    
   7 C7             3.6365    -0.6531    -0.0359 C.ar    
   8 C8             4.7814     0.0902    -0.0407 C.ar    
   9 C9             4.7038     1.4909    -0.0328 C.ar    
  10 N10            3.5432     2.1171    -0.0207 N.ar    
  11 C11            5.9555     2.2856    -0.0382 C.2     
  12 N12            5.8989     3.6322    -0.0308 N.am    
  13 O13            7.0324     1.7230    -0.0493 O.2     
  14 C14            7.1356     4.4174    -0.0361 C.3     
  15 C15            6.8701     5.7913     0.5827 C.3     
  16 C16            3.6922    -2.1591    -0.0437 C.3     
  17 C17            3.5760    -2.6587    -1.4607 C.ar    
  18 C18            4.7092    -2.8456    -2.2296 C.ar    
  19 C19            2.3304    -2.9411    -2.0040 C.ar    
  20 C20            2.2668    -3.3983    -3.3085 C.ar    
  21 C21            3.4492    -3.5587    -4.0281 C.ar    
  22 N22            4.6209    -3.2821    -3.4700 N.ar    
  23 C23            8.1618     6.6114     0.5772 C.3     
  24 C24            8.6488     6.7861    -0.8627 C.3     
  25 C25            8.9143     5.4122    -1.4815 C.3     
  26 C26            7.6227     4.5921    -1.4760 C.3     
  27 O27            6.4153     5.6281     1.9275 O.3     
  28 C28            3.3982    -4.0483    -5.4271 C.2     
  29 C29            2.2846    -4.4716    -6.0941 C.2     
  30 C30            4.4899    -4.1559    -6.3131 C.2     
  31 N31            4.0448    -4.6252    -7.4489 N.2     
  32 N32            2.6646    -4.8310    -7.3354 N.pl3   
  33 C33            1.7848    -5.3491    -8.3861 C.3     
  34 Cl34           6.1368    -3.7375    -5.9578 Cl      
  35 H35           -0.9458     1.9287     0.0090 H       
  36 H36           -0.9228    -0.5287     0.0009 H       
  37 H37            1.1821    -1.7567    -0.0223 H       
  38 H38            1.1302     3.1985     0.0041 H       
  39 H39            5.7444    -0.3986    -0.0502 H       
  40 H40            5.0392     4.0814    -0.0219 H       
  41 H41            7.8980     3.8984     0.5449 H       
  42 H42            6.1078     6.3103     0.0018 H       
  43 H43            4.6397    -2.4898     0.3817 H       
  44 H44            2.8690    -2.5561     0.5503 H       
  45 H45            5.6802    -2.6307    -1.8084 H       
  46 H46            1.4309    -2.8073    -1.4214 H       
  47 H47            1.3141    -3.6280    -3.7624 H       
  48 H48            7.9726     7.5901     1.0180 H       
  49 H49            8.9242     6.0924     1.1582 H       
  50 H50            7.8864     7.3050    -1.4437 H       
  51 H51            9.5690     7.3703    -0.8666 H       
  52 H52            9.2612     5.5367    -2.5073 H       
  53 H53            9.6767     4.8932    -0.9005 H       
  54 H54            7.8118     3.6134    -1.9168 H       
  55 H55            6.8603     5.1111    -2.0569 H       
  56 H56            6.2269     6.4602     2.3827 H       
  57 H57            1.2807    -4.5116    -5.6979 H       
  58 H58            1.7370    -6.4358    -8.3168 H       
  59 H59            0.7853    -4.9327    -8.2610 H       
  60 H60            2.1777    -5.0642    -9.3621 H       
@<TRIPOS>BOND
   1    1    2 ar
   2    1    6 ar
   3    1   35 1
   4    2    3 ar
   5    2   36 1
   6    3    4 ar
   7    3   37 1
   8    4    5 ar
   9    4    7 ar
  10    5    6 ar
  11    5   10 ar
  12    6   38 1
  13    7    8 ar
  14    7   16 1
  15    8    9 ar
  16    8   39 1
  17    9   10 ar
  18    9   11 1
  19   11   12 am
  20   11   13 2
  21   12   14 1
  22   12   40 1
  23   14   15 1
  24   14   26 1
  25   14   41 1
  26   15   23 1
  27   15   27 1
  28   15   42 1
  29   16   17 1
  30   16   43 1
  31   16   44 1
  32   17   18 ar
  33   17   19 ar
  34   18   22 ar
  35   18   45 1
  36   19   20 ar
  37   19   46 1
  38   20   21 ar
  39   20   47 1
  40   21   22 ar
  41   21   28 1
  42   23   24 1
  43   23   48 1
  44   23   49 1
  45   24   25 1
  46   24   50 1
  47   24   51 1
  48   25   26 1
  49   25   52 1
  50   25   53 1
  51   26   54 1
  52   26   55 1
  53   27   56 1
  54   28   29 2
  55   28   30 1
  56   29   32 1
  57   29   57 1
  58   30   31 2
  59   30   34 1
  60   31   32 1
  61   32   33 1
  62   33   58 1
  63   33   59 1
  64   33   60 1

#	End of record

