#	Name: ASD01001148
#	Creating user name:	WinNT
#	Creation time:	15. 06. 2019 18:55

#	Modifying user name:	WinNT
#	Modification time:	15. 06. 2019 18:55

#	Program:	/corina/corina34_cracker 3.40 0067  02.08.2006

@<TRIPOS>MOLECULE
ASD01001148
  71   74    0    0    0
SMALL
NO_CHARGES


@<TRIPOS>ATOM
   1 C1             0.1759     1.1016     0.2129 C.2     
   2 C2             0.2831    -0.3039     0.3268 C.2     
   3 O3             1.2900     1.8600     0.1439 O.3     
   4 O4            -0.9211     1.6268     0.1722 O.2     
   5 C5             0.1120    -0.9970     1.6633 C.3     
   6 C6             0.5361    -1.0749    -0.7534 C.2     
   7 C7             1.1095     3.2586    -0.0868 C.3     
   8 N8             0.2421    -2.4638     1.6754 N.am    
   9 C9             0.7075    -0.4267    -2.1030 C.3     
  10 N10            0.6393    -2.4310    -0.6421 N.am    
  11 C11            2.4634     3.9671    -0.0099 C.3     
  12 C12            0.5021    -3.0942     0.5129 C.2     
  13 O13            3.3047     3.5029    -1.0676 O.3     
  14 S14            0.6565    -4.7992     0.5121 S.2     
  15 C15            4.6361     4.0196    -1.0207 C.3     
  16 C16            5.4059     3.5592    -2.2602 C.3     
  17 O17            4.8091     4.1248    -3.4289 O.3     
  18 C18            5.3724     3.8152    -4.6155 C.2     
  19 C19            4.8331     4.3401    -5.8127 C.2     
  20 O20            6.3445     3.0842    -4.6553 O.2     
  21 C21            5.3193     3.9721    -7.0182 C.2     
  22 C22            3.6859     5.3298    -5.7874 C.3     
  23 C23            6.4563     2.9856    -7.0892 C.3     
  24 N24            4.7973     4.4788    -8.1728 N.am    
  25 C25            4.1228     6.5271    -4.9833 C.ar    
  26 N26            3.1923     5.8121    -7.0883 N.am    
  27 H27            0.1433    -2.9643     2.5004 H       
  28 H28            0.8219    -2.9435    -1.4452 H       
  29 H29            5.1786     4.1851    -9.0150 H       
  30 H30            2.4602     6.4465    -7.1374 H       
  31 C31            4.9238     7.4936    -5.5631 C.ar    
  32 C32            5.3264     8.5933    -4.8281 C.ar    
  33 C33            4.9287     8.7292    -3.5121 C.ar    
  34 C34            4.1247     7.7612    -2.9282 C.ar    
  35 C35            3.7181     6.6611    -3.6693 C.ar    
  36 C36            1.1355    -0.4319     2.6142 C.ar    
  37 C37            0.7466     0.4542     3.6001 C.ar    
  38 C38            1.6892     0.9737     4.4754 C.ar    
  39 C39            3.0206     0.6016     4.3581 C.ar    
  40 C40            3.4044    -0.2848     3.3706 C.ar    
  41 C41            2.4622    -0.8052     2.5027 C.ar    
  42 O42            1.3092     1.8459     5.4458 O.3     
  43 C43            3.7883     5.3582    -8.2086 C.2     
  44 S44            3.2284     5.9144    -9.7279 S.2     
  45 O45            3.7321     7.8926    -1.6338 O.3     
  46 H46           -0.8756    -0.7440     2.0491 H       
  47 H47            0.6754     3.4109    -1.0749 H       
  48 H48            0.4414     3.6685     0.6707 H       
  49 H49            1.7676    -0.2595    -2.2938 H       
  50 H50            0.2981    -1.0793    -2.8741 H       
  51 H51            0.1809     0.5275    -2.1173 H       
  52 H52            2.3167     5.0427    -0.1078 H       
  53 H53            2.9330     3.7503     0.9496 H       
  54 H54            4.6025     5.1089    -0.9977 H       
  55 H55            5.1369     3.6526    -0.1248 H       
  56 H56            6.4428     3.8872    -2.1866 H       
  57 H57            5.3727     2.4716    -2.3253 H       
  58 H58            2.8513     4.8635    -5.2638 H       
  59 H59            6.0612     1.9713    -7.0341 H       
  60 H60            6.9925     3.1162    -8.0291 H       
  61 H61            7.1376     3.1559    -6.2555 H       
  62 H62            5.2358     7.3891    -6.5918 H       
  63 H63            5.9526     9.3465    -5.2830 H       
  64 H64            5.2437     9.5882    -2.9383 H       
  65 H65            3.0919     5.9063    -3.2171 H       
  66 H66           -0.2904     0.7425     3.6891 H       
  67 H67            3.7563     1.0049     5.0381 H       
  68 H68            4.4407    -0.5747     3.2789 H       
  69 H69            2.7642    -1.4983     1.7315 H       
  70 H70            1.0588     1.4230     6.2786 H       
  71 H71            2.8985     8.3699    -1.5221 H       
@<TRIPOS>BOND
   1    1    2 1
   2    1    3 1
   3    1    4 2
   4    2    5 1
   5    2    6 2
   6    3    7 1
   7    5    8 1
   8    5   36 1
   9    5   46 1
  10    6    9 1
  11    6   10 1
  12    7   11 1
  13    7   47 1
  14    7   48 1
  15    8   12 am
  16    8   27 1
  17    9   49 1
  18    9   50 1
  19    9   51 1
  20   10   28 1
  21   10   12 am
  22   11   13 1
  23   11   52 1
  24   11   53 1
  25   12   14 2
  26   13   15 1
  27   15   16 1
  28   15   54 1
  29   15   55 1
  30   16   17 1
  31   16   56 1
  32   16   57 1
  33   17   18 1
  34   18   19 1
  35   18   20 2
  36   19   21 2
  37   19   22 1
  38   21   23 1
  39   21   24 1
  40   22   25 1
  41   22   26 1
  42   22   58 1
  43   23   59 1
  44   23   60 1
  45   23   61 1
  46   24   29 1
  47   24   43 am
  48   25   31 ar
  49   25   35 ar
  50   26   30 1
  51   26   43 am
  52   31   32 ar
  53   31   62 1
  54   32   33 ar
  55   32   63 1
  56   33   34 ar
  57   33   64 1
  58   34   35 ar
  59   34   45 1
  60   35   65 1
  61   36   37 ar
  62   36   41 ar
  63   37   38 ar
  64   37   66 1
  65   38   39 ar
  66   38   42 1
  67   39   40 ar
  68   39   67 1
  69   40   41 ar
  70   40   68 1
  71   41   69 1
  72   42   70 1
  73   43   44 2
  74   45   71 1

#	End of record

