#	Name: ASD01916210
#	Creating user name:	WinNT
#	Creation time:	15. 06. 2019 20:06

#	Modifying user name:	WinNT
#	Modification time:	15. 06. 2019 20:06

#	Program:	/corina/corina34_cracker 3.40 0067  02.08.2006

@<TRIPOS>MOLECULE
ASD01916210
  43   45    0    0    0
SMALL
NO_CHARGES


@<TRIPOS>ATOM
   1 C1            -0.4102     1.7400     0.1048 C.ar    
   2 C2            -0.5428     0.3897     0.3735 C.ar    
   3 N3             0.5003    -0.3402     0.7072 N.ar    
   4 C4             1.7182     0.1814     0.8001 C.ar    
   5 C5             1.9315     1.5323     0.5450 C.ar    
   6 C6             0.8477     2.3310     0.1895 C.ar    
   7 C7            -1.9019    -0.2551     0.2833 C.3     
   8 O8             1.0134     3.6534    -0.0680 O.3     
   9 C9             2.2650     4.1721     0.0379 C.ar    
  10 C10            3.1958     3.9759    -0.9726 C.ar    
  11 N11            4.4111     4.4765    -0.8755 N.ar    
  12 C12            4.7919     5.1782     0.1740 C.ar    
  13 C13            3.9201     5.4172     1.2228 C.ar    
  14 C14            2.6293     4.9118     1.1580 C.ar    
  15 C15            2.8598    -0.6831     1.1795 C.2     
  16 N16            2.6600    -1.9925     1.4285 N.am    
  17 O17            3.9764    -0.2116     1.2662 O.2     
  18 C18            3.7463    -2.8270     1.6819 C.ar    
  19 C19            3.5455    -4.1954     1.8226 C.ar    
  20 C20            4.6334    -5.0130     2.0742 C.ar    
  21 C21            5.8894    -4.4312     2.1767 C.ar    
  22 C22            6.0157    -3.0641     2.0259 C.ar    
  23 N23            4.9612    -2.3103     1.7813 N.ar    
  24 F24            4.3197     6.1373     2.2937 F       
  25 C25            7.1026    -5.2822     2.4503 C.3     
  26 F26            7.6582    -5.7057     1.2382 F       
  27 F27            8.0474    -4.5330     3.1598 F       
  28 F28            6.7286    -6.3979     3.2070 F       
  29 C29           -1.8384    -1.4468    -0.6743 C.3     
  30 H30           -1.2723     2.3286    -0.1721 H       
  31 H31            2.9224     1.9550     0.6217 H       
  32 H32           -2.2072    -0.5990     1.2715 H       
  33 H33           -2.6248     0.4712    -0.0881 H       
  34 H34            2.9213     3.4064    -1.8482 H       
  35 H35            5.7969     5.5714     0.2161 H       
  36 H36            1.9261     5.0856     1.9590 H       
  37 H37            1.7598    -2.3538     1.4312 H       
  38 H38            2.5539    -4.6148     1.7370 H       
  39 H39            4.5079    -6.0796     2.1884 H       
  40 H40            6.9909    -2.6069     2.1049 H       
  41 H41           -1.5331    -1.1029    -1.6625 H       
  42 H42           -1.1155    -2.1732    -0.3029 H       
  43 H43           -2.8214    -1.9132    -0.7395 H       
@<TRIPOS>BOND
   1    1    2 ar
   2    1    6 ar
   3    1   30 1
   4    2    3 ar
   5    2    7 1
   6    3    4 ar
   7    4    5 ar
   8    4   15 1
   9    5    6 ar
  10    5   31 1
  11    6    8 1
  12    7   29 1
  13    7   32 1
  14    7   33 1
  15    8    9 1
  16    9   10 ar
  17    9   14 ar
  18   10   11 ar
  19   10   34 1
  20   11   12 ar
  21   12   13 ar
  22   12   35 1
  23   13   24 1
  24   13   14 ar
  25   14   36 1
  26   15   16 am
  27   15   17 2
  28   16   18 1
  29   16   37 1
  30   18   19 ar
  31   18   23 ar
  32   19   20 ar
  33   19   38 1
  34   20   21 ar
  35   20   39 1
  36   21   22 ar
  37   21   25 1
  38   22   23 ar
  39   22   40 1
  40   25   26 1
  41   25   27 1
  42   25   28 1
  43   29   41 1
  44   29   42 1
  45   29   43 1

#	End of record

