#	Name: ASD01917557
#	Creating user name:	WinNT
#	Creation time:	15. 06. 2019 20:09

#	Modifying user name:	WinNT
#	Modification time:	15. 06. 2019 20:09

#	Program:	/corina/corina34_cracker 3.40 0067  02.08.2006

@<TRIPOS>MOLECULE
ASD01917557
  47   51    0    0    0
SMALL
NO_CHARGES


@<TRIPOS>ATOM
   1 N1             0.0006     1.4786     0.0104 N.3     
   2 C2             1.4088     1.9587    -0.0168 C.3     
   3 C3            -0.0115     0.0239     0.0190 C.3     
   4 C4             0.6664    -0.4382     1.3189 C.3     
   5 N5             2.0154     0.1237     1.4354 N.3     
   6 C6             2.0308     1.5950     1.3249 C.3     
   7 C7             2.6267    -0.2923     2.6054 C.ar    
   8 N8             2.1212     0.0551     3.7821 N.ar    
   9 C9             2.7077    -0.3440     4.8970 C.ar    
  10 C10            3.8513    -1.1252     4.8459 C.ar    
  11 N11            4.3659    -1.4782     3.6842 N.ar    
  12 C12            3.7832    -1.0900     2.5534 C.ar    
  13 C13            4.3346    -1.4768     1.2898 C.1     
  14 N14            4.7721    -1.7836     0.2873 N.1     
  15 C15           -0.6637     2.1619    -1.0978 C.3     
  16 C16            0.0657     3.5191    -1.2558 C.3     
  17 C17            1.2289     3.4719    -0.2264 C.3     
  18 C18           -2.1177     2.3880    -0.7723 C.2     
  19 N19           -3.1339     2.1740    -1.5749 N.2     
  20 N20           -4.2826     2.5223    -0.8455 N.pl3   
  21 N21           -3.8854     2.9124     0.3179 N.2     
  22 N22           -2.6035     2.8350     0.3820 N.2     
  23 C23           -5.6091     2.4586    -1.2965 C.ar    
  24 C24           -6.6479     2.8382    -0.4575 C.ar    
  25 C25           -7.9541     2.7742    -0.9049 C.ar    
  26 C26           -8.2261     2.3316    -2.1879 C.ar    
  27 C27           -7.1930     1.9532    -3.0248 C.ar    
  28 C28           -5.8852     2.0211    -2.5847 C.ar    
  29 Cl29          -9.2543     3.2485     0.1430 Cl      
  30 H30            1.9626     1.5043    -0.8383 H       
  31 H31           -1.0394    -0.3377    -0.0109 H       
  32 H32            0.5401    -0.3557    -0.8410 H       
  33 H33            0.0682    -0.1128     2.1700 H       
  34 H34            0.7302    -1.5264     1.3223 H       
  35 H35            3.0573     1.9590     1.3680 H       
  36 H36            1.4473     2.0333     2.1346 H       
  37 H37            2.2938    -0.0595     5.8531 H       
  38 H38            4.3238    -1.4463     5.7625 H       
  39 H39           -0.5692     1.5756    -2.0118 H       
  40 H40            0.4587     3.6224    -2.2672 H       
  41 H41           -0.6110     4.3420    -1.0255 H       
  42 H42            0.9451     3.9629     0.7045 H       
  43 H43            2.1333     3.9179    -0.6402 H       
  44 H44           -6.4357     3.1828     0.5438 H       
  45 H45           -9.2474     2.2816    -2.5357 H       
  46 H46           -7.4081     1.6083    -4.0253 H       
  47 H47           -5.0784     1.7298    -3.2409 H       
@<TRIPOS>BOND
   1    1    3 1
   2    1    2 1
   3    1   15 1
   4    2    6 1
   5    2   17 1
   6    2   30 1
   7    3    4 1
   8    3   31 1
   9    3   32 1
  10    4    5 1
  11    4   33 1
  12    4   34 1
  13    5    6 1
  14    5    7 1
  15    6   35 1
  16    6   36 1
  17    7    8 ar
  18    7   12 ar
  19    8    9 ar
  20    9   10 ar
  21    9   37 1
  22   10   11 ar
  23   10   38 1
  24   11   12 ar
  25   12   13 1
  26   13   14 3
  27   15   16 1
  28   15   18 1
  29   15   39 1
  30   16   17 1
  31   16   40 1
  32   16   41 1
  33   17   42 1
  34   17   43 1
  35   18   19 2
  36   18   22 1
  37   19   20 1
  38   20   21 1
  39   20   23 1
  40   21   22 2
  41   23   24 ar
  42   23   28 ar
  43   24   25 ar
  44   24   44 1
  45   25   26 ar
  46   25   29 1
  47   26   27 ar
  48   26   45 1
  49   27   28 ar
  50   27   46 1
  51   28   47 1

#	End of record

