#	Name: ASD02039117
#	Creating user name:	WinNT
#	Creation time:	15. 06. 2019 20:17

#	Modifying user name:	WinNT
#	Modification time:	15. 06. 2019 20:17

#	Program:	/corina/corina34_cracker 3.40 0067  02.08.2006

@<TRIPOS>MOLECULE
ASD02039117
  38   41    0    0    0
SMALL
NO_CHARGES


@<TRIPOS>ATOM
   1 N1             0.0234     1.2846    -0.3605 N.2     
   2 N2             0.0398    -0.0019    -0.3616 N.2     
   3 C3             1.2243     1.7332    -0.0874 C.2     
   4 O4             2.0203     0.6621     0.0884 O.3     
   5 C5             1.2410    -0.4221    -0.0917 C.2     
   6 N6             1.6034     3.0607     0.0028 N.pl3   
   7 C7             0.6404     4.0705    -0.0881 C.ar    
   8 C8             1.6810    -1.8604     0.0023 C.3     
   9 C9             2.1408    -2.3346    -1.3522 C.ar    
  10 C10           -0.6619     3.8293     0.3296 C.ar    
  11 C11            0.9861     5.3185    -0.5911 C.ar    
  12 C12            0.0336     6.3143    -0.6800 C.ar    
  13 C13           -1.2649     6.0707    -0.2683 C.ar    
  14 Cl14          -2.4597     7.3250    -0.3816 Cl      
  15 C15            3.4519    -2.1934    -1.7098 C.ar    
  16 C16            1.2298    -2.9161    -2.2231 C.ar    
  17 C17            1.6283    -3.3570    -3.4669 C.ar    
  18 C18            2.9566    -3.2186    -3.8551 C.ar    
  19 C19            3.8789    -2.6334    -2.9667 C.ar    
  20 N20            3.3827    -3.6502    -5.0932 N.am    
  21 C21            4.6670    -3.5162    -5.4679 C.2     
  22 C22            5.6297    -2.9317    -4.6173 C.2     
  23 C23            5.2750    -2.4922    -3.3846 C.2     
  24 O24            5.0086    -3.9099    -6.5697 O.2     
  25 C25           -1.6117     4.8294     0.2385 C.ar    
  26 Cl26          -3.2416     4.5274     0.7540 Cl      
  27 H27            2.5371     3.2910     0.1291 H       
  28 H28            2.5021    -1.9433     0.7144 H       
  29 H29            0.8455    -2.4747     0.3380 H       
  30 H30           -0.9323     2.8612     0.7248 H       
  31 H31            1.9994     5.5098    -0.9120 H       
  32 H32            0.3024     7.2845    -1.0711 H       
  33 H33            4.1554    -1.7436    -1.0249 H       
  34 H34            0.1980    -3.0245    -1.9230 H       
  35 H35            0.9119    -3.8084    -4.1372 H       
  36 H36            2.7469    -4.0567    -5.7026 H       
  37 H37            6.6538    -2.8387    -4.9476 H       
  38 H38            6.0051    -2.0436    -2.7273 H       
@<TRIPOS>BOND
   1    1    2 1
   2    1    3 2
   3    2    5 2
   4    3    4 1
   5    3    6 1
   6    4    5 1
   7    5    8 1
   8    6    7 1
   9    6   27 1
  10    7   10 ar
  11    7   11 ar
  12    8    9 1
  13    8   28 1
  14    8   29 1
  15    9   15 ar
  16    9   16 ar
  17   10   25 ar
  18   10   30 1
  19   11   12 ar
  20   11   31 1
  21   12   13 ar
  22   12   32 1
  23   13   25 ar
  24   13   14 1
  25   15   19 ar
  26   15   33 1
  27   16   17 ar
  28   16   34 1
  29   17   18 ar
  30   17   35 1
  31   18   19 ar
  32   18   20 1
  33   19   23 1
  34   20   21 am
  35   20   36 1
  36   21   22 1
  37   21   24 2
  38   22   23 2
  39   22   37 1
  40   23   38 1
  41   25   26 1

#	End of record

