#	Name: ASD08510001
#	Creating user name:	WinNT
#	Creation time:	15. 06. 2019 21:19

#	Modifying user name:	WinNT
#	Modification time:	15. 06. 2019 21:19

#	Program:	/corina/corina34_cracker 3.40 0067  02.08.2006

@<TRIPOS>MOLECULE
ASD08510001
  49   52    0    0    0
SMALL
NO_CHARGES


@<TRIPOS>ATOM
   1 C1             0.4156     0.6071     1.1503 C.ar    
   2 C2             1.5736     1.3937     1.1384 C.ar    
   3 C3             2.3089     1.5476    -0.0205 C.ar    
   4 C4             1.9011     0.9047    -1.1733 C.ar    
   5 C5             0.7531     0.1261    -1.1811 C.ar    
   6 C6             0.0037    -0.0058    -0.0095 C.ar    
   7 S7            -0.6789    -1.0440     2.9107 S.o2    
   8 C8            -0.2976    -1.0427     4.6892 C.3     
   9 O9             1.9884     1.9860     2.2874 O.3     
  10 N10           -0.1820     0.4692     2.4253 N.am    
  11 C11            1.1515    -0.7867     5.0892 C.3     
  12 C12            2.0570    -0.4565     3.9128 C.3     
  13 C13            2.8670     0.8115     4.1924 C.3     
  14 C14            3.2100     1.4929     2.8567 C.3     
  15 O15            2.9737    -1.5453     3.7145 O.3     
  16 O16            2.1225     1.7195     5.0015 O.3     
  17 C17           -1.3959    -0.5118     5.6201 C.3     
  18 C18           -1.0978    -2.0168     5.5674 C.3     
  19 O19            0.1619    -1.9589     2.2173 O.2     
  20 O20           -2.0885    -1.0468     2.7086 O.2     
  21 F21            2.6309     1.0294    -2.3007 F       
  22 F22            0.3582    -0.4984    -2.3135 F       
  23 N23           -1.1869    -0.7483    -0.0577 N.pl3   
  24 C24           -2.4011    -0.1064    -0.3207 C.ar    
  25 C25           -3.5649    -0.8528    -0.4777 C.ar    
  26 C26           -2.4493     1.2774    -0.4199 C.ar    
  27 C27           -3.6505     1.9091    -0.6799 C.ar    
  28 C28           -4.8049     1.1650    -0.8413 C.ar    
  29 C29           -4.7630    -0.2144    -0.7376 C.ar    
  30 F30           -3.5238    -2.1994    -0.3769 F       
  31 I31           -6.6229     2.1287    -1.2352 I       
  32 H32            3.1941     2.1660    -0.0293 H       
  33 H33           -0.3058     1.2514     3.0031 H       
  34 H34            1.1750     0.0127     5.8350 H       
  35 H35            1.5339    -1.6924     5.5893 H       
  36 H36            1.4885    -0.3211     3.0002 H       
  37 H37            3.7945     0.5448     4.7053 H       
  38 H38            3.6707     0.7713     2.1826 H       
  39 H39            3.8918     2.3248     3.0348 H       
  40 H40            3.5885    -1.4130     2.9799 H       
  41 H41            2.5923     2.5393     5.2071 H       
  42 H42           -1.0817     0.0388     6.5082 H       
  43 H43           -2.3201    -0.1625     5.1549 H       
  44 H44           -1.8110    -2.6639     5.0584 H       
  45 H45           -0.5734    -2.4631     6.4128 H       
  46 H46           -1.1672    -1.7066     0.0913 H       
  47 H47           -1.5487     1.8599    -0.2938 H       
  48 H48           -3.6879     2.9857    -0.7568 H       
  49 H49           -5.6671    -0.7924    -0.8601 H       
@<TRIPOS>BOND
   1    1    6 ar
   2    1    2 ar
   3    1   10 1
   4    2    3 ar
   5    2    9 1
   6    3    4 ar
   7    3   32 1
   8    4    5 ar
   9    4   21 1
  10    5    6 ar
  11    5   22 1
  12    6   23 1
  13    7    8 1
  14    7   10 am
  15    7   19 2
  16    7   20 2
  17    8   17 1
  18    8   11 1
  19    8   18 1
  20    9   14 1
  21   10   33 1
  22   11   12 1
  23   11   34 1
  24   11   35 1
  25   12   13 1
  26   12   15 1
  27   12   36 1
  28   13   14 1
  29   13   16 1
  30   13   37 1
  31   14   38 1
  32   14   39 1
  33   15   40 1
  34   16   41 1
  35   17   18 1
  36   17   42 1
  37   17   43 1
  38   18   44 1
  39   18   45 1
  40   23   24 1
  41   23   46 1
  42   24   26 ar
  43   24   25 ar
  44   25   29 ar
  45   25   30 1
  46   26   27 ar
  47   26   47 1
  48   27   28 ar
  49   27   48 1
  50   28   29 ar
  51   28   31 1
  52   29   49 1

#	End of record

