#	Name: ASD03331911
#	Creating user name:	WinNT
#	Creation time:	15. 06. 2019 20:40

#	Modifying user name:	WinNT
#	Modification time:	15. 06. 2019 20:40

#	Program:	/corina/corina34_cracker 3.40 0067  02.08.2006

@<TRIPOS>MOLECULE
ASD03331911
  63   65    0    0    0
SMALL
NO_CHARGES


@<TRIPOS>ATOM
   1 C1            -0.0616     2.0044     1.7843 C.2     
   2 N2            -0.1507     0.7131     2.1999 N.pl3   
   3 C3             1.0662     0.1317     1.9940 C.2     
   4 N4             1.8795     1.0304     1.4906 N.2     
   5 C5             1.2150     2.1986     1.3516 C.2     
   6 C6             1.7719     3.4574     0.8257 C.2     
   7 O7             1.0698     4.4475     0.7484 O.2     
   8 N8             3.0593     3.5117     0.4305 N.am    
   9 C9             3.6130     4.7632    -0.0922 C.3     
  10 C10            3.3026     4.8734    -1.5864 C.3     
  11 C11            4.0086     3.7435    -2.3386 C.3     
  12 C12            5.1058     4.7765     0.1131 C.2     
  13 C13            1.7920     4.7642    -1.8029 C.3     
  14 C14            3.7970     6.2226    -2.1118 C.3     
  15 O15            5.6886     3.7505     0.3932 O.2     
  16 N16            5.7934     5.9287    -0.0147 N.am    
  17 C17            7.2529     5.9286     0.1117 C.3     
  18 C18           -1.3427     0.0862     2.7776 C.3     
  19 C19           -2.5594     0.4290     1.9124 C.3     
  20 C20           -3.1673     1.7486     2.3767 C.3     
  21 N21           -2.1322     2.6642     2.8607 N.3     
  22 C22           -1.1828     3.0110     1.7926 C.3     
  23 C23           -2.7295     3.8717     3.4466 C.3     
  24 C24            1.4113    -1.2759     2.2891 C.ar    
  25 C25            1.0536    -1.8434     3.5120 C.ar    
  26 C26            2.0922    -2.0451     1.3416 C.ar    
  27 C27            2.4111    -3.3598     1.6250 C.ar    
  28 C28            2.0572    -3.9128     2.8422 C.ar    
  29 C29            1.3784    -3.1571     3.7815 C.ar    
  30 C30            3.1453    -4.1923     0.6056 C.3     
  31 F31            3.3536    -5.4780     1.1162 F       
  32 F32            2.3846    -4.2732    -0.5656 F       
  33 F33            4.3794    -3.5984     0.3201 F       
  34 F34            2.4373    -1.5055     0.1521 F       
  35 H35            3.6192     2.7220     0.4922 H       
  36 H36            3.1662     5.6063     0.4348 H       
  37 H37            3.6564     2.7822    -1.9642 H       
  38 H38            3.7875     3.8220    -3.4030 H       
  39 H39            5.0848     3.8212    -2.1843 H       
  40 H40            1.2890     5.5692    -1.2670 H       
  41 H41            1.5709     4.8427    -2.8673 H       
  42 H42            1.4398     3.8030    -1.4286 H       
  43 H43            4.8413     6.3610    -1.8320 H       
  44 H44            3.7057     6.2452    -3.1977 H       
  45 H45            3.1960     7.0229    -1.6800 H       
  46 H46            5.3218     6.7579    -0.1903 H       
  47 H47            7.6291     6.9430    -0.0206 H       
  48 H48            7.5320     5.5636     1.1002 H       
  49 H49            7.6836     5.2791    -0.6504 H       
  50 H50           -1.2084    -0.9951     2.8054 H       
  51 H51           -1.4977     0.4613     3.7892 H       
  52 H52           -2.2499     0.5190     0.8711 H       
  53 H53           -3.3024    -0.3635     2.0015 H       
  54 H54           -3.6939     2.2129     1.5429 H       
  55 H55           -3.8759     1.5525     3.1814 H       
  56 H56           -0.7776     4.0065     1.9742 H       
  57 H57           -1.6947     2.9944     0.8305 H       
  58 H58           -3.3677     3.5914     4.2846 H       
  59 H59           -1.9386     4.5344     3.7981 H       
  60 H60           -3.3252     4.3852     2.6920 H       
  61 H61            0.5237    -1.2555     4.2469 H       
  62 H62            2.3083    -4.9406     3.0590 H       
  63 H63            1.1053    -3.5955     4.7300 H       
@<TRIPOS>BOND
   1    1    2 1
   2    1    5 2
   3    1   22 1
   4    2    3 1
   5    2   18 1
   6    3    4 2
   7    3   24 1
   8    4    5 1
   9    5    6 1
  10    6    7 2
  11    6    8 am
  12    8    9 1
  13    8   35 1
  14    9   10 1
  15    9   12 1
  16    9   36 1
  17   10   11 1
  18   10   13 1
  19   10   14 1
  20   11   37 1
  21   11   38 1
  22   11   39 1
  23   12   15 2
  24   12   16 am
  25   13   40 1
  26   13   41 1
  27   13   42 1
  28   14   43 1
  29   14   44 1
  30   14   45 1
  31   16   17 1
  32   16   46 1
  33   17   47 1
  34   17   48 1
  35   17   49 1
  36   18   19 1
  37   18   50 1
  38   18   51 1
  39   19   20 1
  40   19   52 1
  41   19   53 1
  42   20   21 1
  43   20   54 1
  44   20   55 1
  45   21   22 1
  46   21   23 1
  47   22   56 1
  48   22   57 1
  49   23   58 1
  50   23   59 1
  51   23   60 1
  52   24   25 ar
  53   24   26 ar
  54   25   29 ar
  55   25   61 1
  56   26   27 ar
  57   26   34 1
  58   27   28 ar
  59   27   30 1
  60   28   29 ar
  61   28   62 1
  62   29   63 1
  63   30   31 1
  64   30   32 1
  65   30   33 1

#	End of record

