#	Name: ASD01881244
#	Creating user name:	WinNT
#	Creation time:	15. 06. 2019 19:42

#	Modifying user name:	WinNT
#	Modification time:	15. 06. 2019 19:42

#	Program:	/corina/corina34_cracker 3.40 0067  02.08.2006

@<TRIPOS>MOLECULE
ASD01881244
  35   37    0    0    0
SMALL
NO_CHARGES


@<TRIPOS>ATOM
   1 N1            -0.0158     1.3145     0.0093 N.ar    
   2 C2             0.0021    -0.0041     0.0020 C.ar    
   3 N3             1.1331    -0.6827    -0.0120 N.ar    
   4 C4             2.2995    -0.0557    -0.0197 C.ar    
   5 C5             2.3197     1.3323    -0.0129 C.ar    
   6 C6             1.1114     2.0087     0.0022 C.ar    
   7 C7             3.6252     2.0850    -0.0209 C.3     
   8 O8             3.3650     3.4901    -0.0115 O.3     
   9 C9             4.4417     4.3161    -0.0170 C.ar    
  10 C10            4.2595     5.6956    -0.0084 C.ar    
  11 C11            5.3495     6.5301    -0.0135 C.ar    
  12 C12            6.6449     6.0023    -0.0273 C.ar    
  13 C13            6.8223     4.6160    -0.0355 C.ar    
  14 C14            5.7253     3.7835    -0.0254 C.ar    
  15 C15            5.5013     8.0308    -0.0072 C.3     
  16 N16            6.9443     8.2967    -0.0182 N.am    
  17 C17            7.6003     7.1237    -0.0298 C.2     
  18 O18            8.8103     7.0049    -0.0405 O.2     
  19 Br19          -1.6371    -0.9470     0.0126 Br      
  20 Cl20           3.7830    -0.9573    -0.0376 Cl      
  21 C21            7.7967    10.0773     1.4255 C.3     
  22 C22            7.5675     9.6226    -0.0173 C.3     
  23 H23            1.0890     3.0884     0.0075 H       
  24 H24            4.2046     1.8169     0.8626 H       
  25 H25            4.1886     1.8258    -0.9173 H       
  26 H26            3.2619     6.1092     0.0020 H       
  27 H27            7.8182     4.1983    -0.0466 H       
  28 H28            5.8631     2.7123    -0.0313 H       
  29 H29            5.0347     8.4584    -0.8946 H       
  30 H30            5.0501     8.4493     0.8925 H       
  31 H31            8.2604    11.0638     1.4262 H       
  32 H32            6.8411    10.1246     1.9477 H       
  33 H33            8.4520     9.3675     1.9304 H       
  34 H34            8.5231     9.5753    -0.5395 H       
  35 H35            6.9122    10.3324    -0.5222 H       
@<TRIPOS>BOND
   1    1    2 ar
   2    1    6 ar
   3    2    3 ar
   4    2   19 1
   5    3    4 ar
   6    4    5 ar
   7    4   20 1
   8    5    6 ar
   9    5    7 1
  10    6   23 1
  11    7    8 1
  12    7   24 1
  13    7   25 1
  14    8    9 1
  15    9   10 ar
  16    9   14 ar
  17   10   11 ar
  18   10   26 1
  19   11   12 ar
  20   11   15 1
  21   12   13 ar
  22   12   17 1
  23   13   14 ar
  24   13   27 1
  25   14   28 1
  26   15   16 1
  27   15   29 1
  28   15   30 1
  29   16   17 am
  30   16   22 1
  31   17   18 2
  32   21   22 1
  33   21   31 1
  34   21   32 1
  35   21   33 1
  36   22   34 1
  37   22   35 1

#	End of record

