#	Name: ASD05430667
#	Creating user name:	WinNT
#	Creation time:	15. 06. 2019 21:00

#	Modifying user name:	WinNT
#	Modification time:	15. 06. 2019 21:00

#	Program:	/corina/corina34_cracker 3.40 0067  02.08.2006

@<TRIPOS>MOLECULE
ASD05430667
  26   26    0    0    0
SMALL
NO_CHARGES


@<TRIPOS>ATOM
   1 C1            -0.0167     1.3779     0.0096 C.ar    
   2 C2             0.0021    -0.0041     0.0020 C.ar    
   3 C3            -1.1857    -0.7116     0.0095 C.ar    
   4 C4            -2.4105     1.3455     0.0438 C.ar    
   5 C5            -1.2231     2.0528     0.0305 C.ar    
   6 C6             1.2780     2.1491     0.0014 C.3     
   7 C7            -2.3919    -0.0369     0.0251 C.ar    
   8 C8             2.0972     1.7837     1.2409 C.3     
   9 C9             2.0733     1.7972    -1.2574 C.3     
  10 S10           -3.9900     2.2290     0.0712 Du      
  11 F11           -4.5621     1.2415    -1.0645 F       
  12 F12           -4.5294     1.2293     1.2122 F       
  13 F13           -3.4506     3.2286    -1.0698 F       
  14 F14           -5.3949     3.0149     0.0955 F       
  15 F15           -3.4179     3.2165     1.2068 F       
  16 H16            0.9446    -0.5313    -0.0101 H       
  17 H17           -1.1711    -1.7914     0.0029 H       
  18 H18           -1.2377     3.1326     0.0451 H       
  19 H19            1.0644     3.2179     0.0092 H       
  20 H20           -3.3198    -0.5895     0.0305 H       
  21 H21            2.3108     0.7149     1.2331 H       
  22 H22            3.0336     2.3415     1.2350 H       
  23 H23            1.5306     2.0345     2.1377 H       
  24 H24            2.2870     0.7283    -1.2652 H       
  25 H25            1.4897     2.0574    -2.1405 H       
  26 H26            3.0098     2.3549    -1.2633 H       
@<TRIPOS>BOND
   1    1    2 ar
   2    1    6 1
   3    1    5 ar
   4    2    3 ar
   5    2   16 1
   6    3    7 ar
   7    3   17 1
   8    4    5 ar
   9    4   10 1
  10    4    7 ar
  11    5   18 1
  12    6    8 1
  13    6    9 1
  14    6   19 1
  15    7   20 1
  16    8   21 1
  17    8   22 1
  18    8   23 1
  19    9   24 1
  20    9   25 1
  21    9   26 1
  22   10   11 1
  23   10   12 1
  24   10   13 1
  25   10   14 1
  26   10   15 1

#	End of record

