#	Name: ASD01884999
#	Creating user name:	WinNT
#	Creation time:	15. 06. 2019 19:49

#	Modifying user name:	WinNT
#	Modification time:	15. 06. 2019 19:49

#	Program:	/corina/corina34_cracker 3.40 0067  02.08.2006

@<TRIPOS>MOLECULE
ASD01884999
  45   47    0    0    0
SMALL
NO_CHARGES


@<TRIPOS>ATOM
   1 C1            -0.0173     1.4248     0.0099 C.3     
   2 O2             0.0021    -0.0041     0.0020 O.3     
   3 C3             0.6056    -0.6069    -1.0554 C.ar    
   4 C4             1.1724     0.1643    -2.0614 C.ar    
   5 C5             1.7861    -0.4432    -3.1366 C.ar    
   6 C6             1.8380    -1.8339    -3.2138 C.ar    
   7 C7             1.2678    -2.6078    -2.2007 C.ar    
   8 F8             1.3156    -3.9562    -2.2708 F       
   9 C9             0.6591    -1.9922    -1.1245 C.ar    
  10 C10            2.4966    -2.4900    -4.3686 C.ar    
  11 C11            3.8683    -2.3524    -4.5843 C.ar    
  12 C12            4.4456    -2.9858    -5.6816 C.ar    
  13 N13            3.7072    -3.7114    -6.5142 N.ar    
  14 C14            2.4127    -3.8642    -6.3440 C.ar    
  15 C15            1.7583    -3.2708    -5.2711 C.ar    
  16 O16            0.4225    -3.4398    -5.1015 O.3     
  17 C17           -0.2564    -4.2492    -6.0638 C.3     
  18 C18           -1.7207    -4.3222    -5.7153 C.ar    
  19 C19           -2.2027    -5.3184    -4.8804 C.ar    
  20 C20           -3.5521    -5.3536    -4.5831 C.ar    
  21 N21           -4.3766    -4.4545    -5.0833 N.ar    
  22 C22           -3.9534    -3.4929    -5.8806 C.ar    
  23 C23           -4.9375    -2.4901    -6.4256 C.3     
  24 C24           -2.6172    -3.3909    -6.2175 C.ar    
  25 C25            5.8987    -2.8487    -5.9236 C.2     
  26 N26            6.4659    -3.4584    -6.9833 N.am    
  27 O27            6.5810    -2.1862    -5.1667 O.2     
  28 H28            1.0053     1.8021     0.0021 H       
  29 H29           -0.5445     1.7859    -0.8732 H       
  30 H30           -0.5275     1.7763     0.9067 H       
  31 H31            1.1322     1.2419    -2.0018 H       
  32 H32            2.2258     0.1582    -3.9185 H       
  33 H33            0.2212    -2.5891    -0.3381 H       
  34 H34            4.4729    -1.7633    -3.9106 H       
  35 H35            1.8505    -4.4629    -7.0453 H       
  36 H36           -0.1402    -3.8101    -7.0546 H       
  37 H37            0.1687    -5.2529    -6.0590 H       
  38 H38           -1.5323    -6.0579    -4.4679 H       
  39 H39           -3.9356    -6.1267    -3.9338 H       
  40 H40           -5.0109    -1.6445    -5.7418 H       
  41 H41           -4.5978    -2.1406    -7.4006 H       
  42 H42           -5.9156    -2.9600    -6.5287 H       
  43 H43           -2.2760    -2.5985    -6.8672 H       
  44 H44            5.9214    -3.9871    -7.5874 H       
  45 H45            7.4186    -3.3685    -7.1420 H       
@<TRIPOS>BOND
   1    1    2 1
   2    1   28 1
   3    1   29 1
   4    1   30 1
   5    2    3 1
   6    3    9 ar
   7    3    4 ar
   8    4    5 ar
   9    4   31 1
  10    5    6 ar
  11    5   32 1
  12    6    7 ar
  13    6   10 1
  14    7    8 1
  15    7    9 ar
  16    9   33 1
  17   10   15 ar
  18   10   11 ar
  19   11   12 ar
  20   11   34 1
  21   12   13 ar
  22   12   25 1
  23   13   14 ar
  24   14   15 ar
  25   14   35 1
  26   15   16 1
  27   16   17 1
  28   17   18 1
  29   17   36 1
  30   17   37 1
  31   18   24 ar
  32   18   19 ar
  33   19   20 ar
  34   19   38 1
  35   20   21 ar
  36   20   39 1
  37   21   22 ar
  38   22   23 1
  39   22   24 ar
  40   23   40 1
  41   23   41 1
  42   23   42 1
  43   24   43 1
  44   25   26 am
  45   25   27 2
  46   26   44 1
  47   26   45 1

#	End of record

