#	Name: ASD01230090
#	Creating user name:	WinNT
#	Creation time:	15. 06. 2019 19:11

#	Modifying user name:	WinNT
#	Modification time:	15. 06. 2019 19:11

#	Program:	/corina/corina34_cracker 3.40 0067  02.08.2006

@<TRIPOS>MOLECULE
ASD01230090
  46   48    0    0    0
SMALL
NO_CHARGES


@<TRIPOS>ATOM
   1 C1            -0.0166     1.3746     0.0096 C.2     
   2 C2             0.0021    -0.0041     0.0020 C.2     
   3 C3            -1.3405    -0.4411     0.0125 C.2     
   4 N4            -2.1106     0.6131     0.0255 N.2     
   5 N5            -1.3081     1.7597     0.0299 N.pl3   
   6 C6            -1.7899     3.1431     0.0438 C.3     
   7 C7             1.1855     2.2834     0.0030 C.3     
   8 O8             1.5787     2.5629     1.3481 O.3     
   9 C9             2.6552     3.3744     1.5203 C.ar    
  10 C10            3.0917     3.6876     2.7993 C.ar    
  11 C11            4.1862     4.5127     2.9716 C.ar    
  12 C12            4.8464     5.0263     1.8707 C.ar    
  13 C13            4.4130     4.7160     0.5949 C.ar    
  14 C14            3.3228     3.8864     0.4172 C.ar    
  15 C15            1.1664    -0.8375    -0.0140 C.1     
  16 C16            2.1210    -1.5208    -0.0271 C.1     
  17 C17            3.2854    -2.3543    -0.0431 C.ar    
  18 C18            3.1530    -3.7451    -0.0493 C.ar    
  19 C19            4.5595    -1.7804    -0.0585 C.ar    
  20 C20            5.6762    -2.5893    -0.0743 C.ar    
  21 C21            5.5374    -3.9663    -0.0750 C.ar    
  22 C22            4.2791    -4.5416    -0.0652 C.ar    
  23 S23            4.1148    -6.2959    -0.0656 S.o2    
  24 N24            4.0822    -6.7856     1.5160 N.am    
  25 O25            2.8286    -6.5783    -0.5997 O.2     
  26 O26            5.3171    -6.8114    -0.6205 O.2     
  27 C27            6.0401     5.9261     2.0616 C.3     
  28 F28            7.2048     5.1525     2.1068 F       
  29 F29            6.1200     6.8274     0.9946 F       
  30 F30            5.9035     6.6339     3.2606 F       
  31 H31           -1.6726    -1.4688     0.0096 H       
  32 H32           -1.9037     3.4778     1.0749 H       
  33 H33           -1.0718     3.7831    -0.4688 H       
  34 H34           -2.7527     3.1976    -0.4642 H       
  35 H35            2.0069     1.7955    -0.5217 H       
  36 H36            0.9337     3.2153    -0.5031 H       
  37 H37            2.5761     3.2870     3.6596 H       
  38 H38            4.5262     4.7571     3.9672 H       
  39 H39            4.9300     5.1190    -0.2634 H       
  40 H40            2.9847     3.6443    -0.5795 H       
  41 H41            2.1714    -4.1955    -0.0412 H       
  42 H42            4.6692    -0.7059    -0.0583 H       
  43 H43            6.6615    -2.1472    -0.0866 H       
  44 H44            6.4155    -4.5949    -0.0875 H       
  45 H45            4.1496    -6.1303     2.2281 H       
  46 H46            3.9958    -7.7276     1.7304 H       
@<TRIPOS>BOND
   1    1    2 2
   2    1    7 1
   3    1    5 1
   4    2    3 1
   5    2   15 1
   6    3    4 2
   7    3   31 1
   8    4    5 1
   9    5    6 1
  10    6   32 1
  11    6   33 1
  12    6   34 1
  13    7    8 1
  14    7   35 1
  15    7   36 1
  16    8    9 1
  17    9   10 ar
  18    9   14 ar
  19   10   11 ar
  20   10   37 1
  21   11   12 ar
  22   11   38 1
  23   12   27 1
  24   12   13 ar
  25   13   14 ar
  26   13   39 1
  27   14   40 1
  28   15   16 3
  29   16   17 1
  30   17   18 ar
  31   17   19 ar
  32   18   22 ar
  33   18   41 1
  34   19   20 ar
  35   19   42 1
  36   20   21 ar
  37   20   43 1
  38   21   22 ar
  39   21   44 1
  40   22   23 1
  41   23   24 am
  42   23   25 2
  43   23   26 2
  44   24   45 1
  45   24   46 1
  46   27   28 1
  47   27   29 1
  48   27   30 1

#	End of record

