#	Name: ASD01230201
#	Creating user name:	WinNT
#	Creation time:	15. 06. 2019 19:12

#	Modifying user name:	WinNT
#	Modification time:	15. 06. 2019 19:12

#	Program:	/corina/corina34_cracker 3.40 0067  02.08.2006

@<TRIPOS>MOLECULE
ASD01230201
  40   42    0    0    0
SMALL
NO_CHARGES


@<TRIPOS>ATOM
   1 C1            -0.5899     1.9518    -0.1909 C.ar    
   2 C2            -0.4369     0.5837    -0.4571 C.ar    
   3 C3             0.8156     0.1092    -0.8455 C.ar    
   4 C4             1.8604     1.0158    -0.9520 C.ar    
   5 C5             1.6326     2.3502    -0.6729 C.ar    
   6 N6             0.4379     2.7762    -0.3068 N.ar    
   7 N7            -1.8304     2.4455     0.1917 N.pl3   
   8 C8            -1.5873    -0.3430    -0.3274 C.ar    
   9 C9            -1.8946    -1.2242    -1.3630 C.ar    
  10 C10           -2.9652    -2.0848    -1.2393 C.ar    
  11 C11           -3.7368    -2.0738    -0.0852 C.ar    
  12 C12           -3.4336    -1.1971     0.9476 C.ar    
  13 C13           -2.3603    -0.3387     0.8328 C.ar    
  14 O14           -4.7913    -2.9226     0.0335 O.3     
  15 C15           -4.9758    -3.8782    -1.0129 C.3     
  16 C16           -5.7398    -5.0876    -0.4701 C.3     
  17 C17           -5.9374    -6.1108    -1.5904 C.3     
  18 C18           -6.7355    -5.4725    -2.7291 C.3     
  19 C19           -5.9715    -4.2631    -3.2719 C.3     
  20 C20           -5.7739    -3.2399    -2.1516 C.3     
  21 Cl21           3.4402     0.4788    -1.4311 Cl      
  22 H22            0.9687    -0.9386    -1.0580 H       
  23 H23            2.4457     3.0562    -0.7554 H       
  24 H24           -2.5873     1.8445     0.2740 H       
  25 H25           -1.9399     3.3914     0.3767 H       
  26 H26           -1.2952    -1.2327    -2.2613 H       
  27 H27           -3.2038    -2.7677    -2.0412 H       
  28 H28           -4.0359    -1.1908     1.8440 H       
  29 H29           -2.1218     0.3394     1.6388 H       
  30 H30           -4.0038    -4.2003    -1.3864 H       
  31 H31           -5.1713    -5.5424     0.3411 H       
  32 H32           -6.7118    -4.7656    -0.0966 H       
  33 H33           -4.9654    -6.4328    -1.9640 H       
  34 H34           -6.4817    -6.9724    -1.2037 H       
  35 H35           -6.8762    -6.2014    -3.5272 H       
  36 H36           -7.7075    -5.1504    -2.3555 H       
  37 H37           -4.9995    -4.5851    -3.6454 H       
  38 H38           -6.5400    -3.8083    -4.0831 H       
  39 H39           -6.7459    -2.9179    -1.7780 H       
  40 H40           -5.2296    -2.3783    -2.5382 H       
@<TRIPOS>BOND
   1    1    2 ar
   2    1    6 ar
   3    1    7 1
   4    2    3 ar
   5    2    8 1
   6    3    4 ar
   7    3   22 1
   8    4    5 ar
   9    4   21 1
  10    5    6 ar
  11    5   23 1
  12    7   24 1
  13    7   25 1
  14    8    9 ar
  15    8   13 ar
  16    9   10 ar
  17    9   26 1
  18   10   11 ar
  19   10   27 1
  20   11   12 ar
  21   11   14 1
  22   12   13 ar
  23   12   28 1
  24   13   29 1
  25   14   15 1
  26   15   16 1
  27   15   20 1
  28   15   30 1
  29   16   17 1
  30   16   31 1
  31   16   32 1
  32   17   18 1
  33   17   33 1
  34   17   34 1
  35   18   19 1
  36   18   35 1
  37   18   36 1
  38   19   20 1
  39   19   37 1
  40   19   38 1
  41   20   39 1
  42   20   40 1

#	End of record

