#	Name: ASD04910268
#	Creating user name:	WinNT
#	Creation time:	15. 06. 2019 20:55

#	Modifying user name:	WinNT
#	Modification time:	15. 06. 2019 20:55

#	Program:	/corina/corina34_cracker 3.40 0067  02.08.2006

@<TRIPOS>MOLECULE
ASD04910268
  51   53    0    0    0
SMALL
NO_CHARGES


@<TRIPOS>ATOM
   1 C1             0.5378     1.4442    -0.3325 C.2     
   2 C2             0.4600    -0.0274    -0.2769 C.ar    
   3 C3             1.6330    -0.7888    -0.2427 C.ar    
   4 C4             1.5615    -2.1512    -0.1912 C.ar    
   5 C5             0.3142    -2.7862    -0.1728 C.ar    
   6 C6            -0.8592    -2.0239    -0.2071 C.ar    
   7 C7            -0.7867    -0.6612    -0.2527 C.ar    
   8 O8             1.6207     1.9952    -0.3484 O.2     
   9 O9            -0.5920     2.1777    -0.3711 O.3     
  10 C10            0.6607    -4.9097     0.9772 C.2     
  11 C11            0.2366    -4.2545    -0.1179 C.2     
  12 C12           -0.3182    -5.0240    -1.2888 C.3     
  13 C13           -1.8432    -5.0858    -1.1820 C.3     
  14 C14           -2.4152    -5.7575    -2.4321 C.3     
  15 C15            1.0507    -4.1566     2.1808 C.ar    
  16 C16            2.1084    -4.6065     2.9774 C.ar    
  17 C17            2.4699    -3.8989     4.1025 C.ar    
  18 C18            1.7846    -2.7393     4.4469 C.ar    
  19 C19            0.7324    -2.2884     3.6578 C.ar    
  20 C20            0.3682    -2.9862     2.5276 C.ar    
  21 N21            2.1548    -2.0238     5.5918 N.pl3   
  22 N22            3.1892    -2.3581     6.4755 N.2     
  23 C23            3.2294    -1.4536     7.4203 C.2     
  24 C24            2.2240    -0.5125     7.1726 C.2     
  25 C25            1.5792    -0.8787     6.0407 C.2     
  26 C26            1.9170     0.6988     8.0150 C.3     
  27 F27            2.7988     0.7478     9.1000 F       
  28 F28            2.0651     1.8547     7.2410 F       
  29 F29            0.6021     0.6182     8.4859 F       
  30 C30           -2.2354    -5.8945     0.0562 C.3     
  31 H31            2.5953    -0.2988    -0.2572 H       
  32 H32            2.4671    -2.7390    -0.1651 H       
  33 H33           -1.8218    -2.5133    -0.1929 H       
  34 H34           -1.6920    -0.0728    -0.2744 H       
  35 H35           -0.4905     3.1387    -0.4069 H       
  36 H36            0.7152    -5.9883     0.9738 H       
  37 H37           -0.0389    -4.5250    -2.2167 H       
  38 H38            0.0877    -6.0356    -1.2839 H       
  39 H39           -2.2428    -4.0752    -1.0975 H       
  40 H40           -2.0156    -6.7681    -2.5165 H       
  41 H41           -3.5016    -5.8016    -2.3560 H       
  42 H42           -2.1358    -5.1814    -3.3142 H       
  43 H43            2.6408    -5.5076     2.7110 H       
  44 H44            3.2866    -4.2456     4.7183 H       
  45 H45            0.2026    -1.3872     3.9292 H       
  46 H46           -0.4461    -2.6326     1.9125 H       
  47 H47            3.9206    -1.4365     8.2500 H       
  48 H48            0.7542    -0.3563     5.5793 H       
  49 H49           -1.8279    -5.4160     0.9467 H       
  50 H50           -3.3219    -5.9385     0.1323 H       
  51 H51           -1.8358    -6.9051    -0.0283 H       
@<TRIPOS>BOND
   1    1    2 1
   2    1    8 2
   3    1    9 1
   4    2    3 ar
   5    2    7 ar
   6    3    4 ar
   7    3   31 1
   8    4    5 ar
   9    4   32 1
  10    5    6 ar
  11    5   11 1
  12    6    7 ar
  13    6   33 1
  14    7   34 1
  15    9   35 1
  16   10   11 2
  17   10   15 1
  18   10   36 1
  19   11   12 1
  20   12   13 1
  21   12   37 1
  22   12   38 1
  23   13   14 1
  24   13   30 1
  25   13   39 1
  26   14   40 1
  27   14   41 1
  28   14   42 1
  29   15   16 ar
  30   15   20 ar
  31   16   17 ar
  32   16   43 1
  33   17   18 ar
  34   17   44 1
  35   18   19 ar
  36   18   21 1
  37   19   20 ar
  38   19   45 1
  39   20   46 1
  40   21   22 1
  41   21   25 1
  42   22   23 2
  43   23   24 1
  44   23   47 1
  45   24   25 2
  46   24   26 1
  47   25   48 1
  48   26   27 1
  49   26   28 1
  50   26   29 1
  51   30   49 1
  52   30   50 1
  53   30   51 1

#	End of record

