#	Name: ASD01911872
#	Creating user name:	WinNT
#	Creation time:	15. 06. 2019 19:58

#	Modifying user name:	WinNT
#	Modification time:	15. 06. 2019 19:58

#	Program:	/corina/corina34_cracker 3.40 0067  02.08.2006

@<TRIPOS>MOLECULE
ASD01911872
  40   42    0    0    0
SMALL
NO_CHARGES


@<TRIPOS>ATOM
   1 C1            -0.7964     1.4658    -0.5688 C.ar    
   2 C2            -0.8759     0.0891    -0.7680 C.ar    
   3 C3            -0.7005    -0.4175    -2.0494 C.ar    
   4 N4            -0.4622     0.3893    -3.0642 N.ar    
   5 C5            -0.3810     1.6961    -2.9088 C.ar    
   6 C6            -0.5443     2.2754    -1.6638 C.ar    
   7 N7            -1.1279    -0.7693     0.3055 N.pl3   
   8 C8            -1.2217    -2.1467     0.0914 C.ar    
   9 C9            -0.0936    -2.8728    -0.2723 C.ar    
  10 C10           -0.1857    -4.2346    -0.4842 C.ar    
  11 C11           -1.3988    -4.8796    -0.3359 C.ar    
  12 C12           -2.5303    -4.1597     0.0270 C.ar    
  13 C13           -2.4401    -2.7925     0.2471 C.ar    
  14 N14           -3.7576    -4.8133     0.1764 N.am    
  15 C15           -4.9035    -4.1735    -0.1304 C.2     
  16 C16           -6.2052    -4.8266     0.1228 C.ar    
  17 O17           -4.8666    -3.0593    -0.6152 O.2     
  18 C18           -7.3936    -4.1667    -0.1937 C.ar    
  19 C19           -8.6057    -4.7816     0.0444 C.ar    
  20 C20           -8.6453    -6.0493     0.5962 C.ar    
  21 C21           -7.4701    -6.7102     0.9128 C.ar    
  22 C22           -6.2509    -6.1082     0.6741 C.ar    
  23 Cl23          -7.5302    -8.3012     1.6049 Cl      
  24 C24           -1.2936    -0.2249     1.6555 C.3     
  25 H25           -0.9324     1.8914     0.4144 H       
  26 H26           -0.7596    -1.4829    -2.2158 H       
  27 H27           -0.1839     2.3230    -3.7659 H       
  28 H28           -0.4760     3.3468    -1.5467 H       
  29 H29            0.8559    -2.3716    -0.3897 H       
  30 H30            0.6923    -4.7965    -0.7667 H       
  31 H31           -1.4675    -5.9444    -0.5027 H       
  32 H32           -3.3183    -2.2307     0.5294 H       
  33 H33           -3.7842    -5.7271     0.5007 H       
  34 H34           -7.3646    -3.1765    -0.6239 H       
  35 H35           -9.5257    -4.2716    -0.2002 H       
  36 H36           -9.5967    -6.5257     0.7812 H       
  37 H37           -5.3348    -6.6242     0.9212 H       
  38 H38           -2.3452     0.0041     1.8283 H       
  39 H39           -0.9567    -0.9591     2.3873 H       
  40 H40           -0.7024     0.6853     1.7553 H       
@<TRIPOS>BOND
   1    1    2 ar
   2    1    6 ar
   3    1   25 1
   4    2    3 ar
   5    2    7 1
   6    3    4 ar
   7    3   26 1
   8    4    5 ar
   9    5    6 ar
  10    5   27 1
  11    6   28 1
  12    7    8 1
  13    7   24 1
  14    8    9 ar
  15    8   13 ar
  16    9   10 ar
  17    9   29 1
  18   10   11 ar
  19   10   30 1
  20   11   12 ar
  21   11   31 1
  22   12   13 ar
  23   12   14 1
  24   13   32 1
  25   14   15 am
  26   14   33 1
  27   15   16 1
  28   15   17 2
  29   16   18 ar
  30   16   22 ar
  31   18   19 ar
  32   18   34 1
  33   19   20 ar
  34   19   35 1
  35   20   21 ar
  36   20   36 1
  37   21   22 ar
  38   21   23 1
  39   22   37 1
  40   24   38 1
  41   24   39 1
  42   24   40 1

#	End of record

