#	Name: ASD01478058
#	Creating user name:	WinNT
#	Creation time:	15. 06. 2019 19:21

#	Modifying user name:	WinNT
#	Modification time:	15. 06. 2019 19:21

#	Program:	/corina/corina34_cracker 3.40 0067  02.08.2006

@<TRIPOS>MOLECULE
ASD01478058
  52   51    0    0    0
SMALL
NO_CHARGES


@<TRIPOS>ATOM
   1 C1             0.2491     1.4508     0.1352 C.3     
   2 C2             1.7237     1.8095    -0.0591 C.3     
   3 C3             2.5554     1.1682     1.0534 C.3     
   4 C4             3.9870     1.6241     0.9368 C.2     
   5 C5             4.5687     2.2211     1.9474 C.2     
   6 O6             2.1690     1.3237    -1.3271 O.3     
   7 C7             1.9283     2.2231    -2.4112 C.3     
   8 O8             2.8615     3.3035    -2.3500 O.3     
   9 C9             4.1833     2.9541    -2.7658 C.3     
  10 C10            5.0922     4.1803    -2.6597 C.3     
  11 O11            5.2163     4.5640    -1.2888 O.3     
  12 C12            6.0492     5.7058    -1.0779 C.3     
  13 O13            0.1095     0.0303     0.2043 O.3     
  14 Si14          -1.4271    -0.4760     0.4116 Si      
  15 C15           -2.1011     0.2207     2.0026 C.3     
  16 C16           -2.4719     0.1103    -1.0150 C.3     
  17 C17           -1.4632    -2.3372     0.4841 C.3     
  18 C18           -0.6051    -2.8187     1.6558 C.3     
  19 C19           -2.9045    -2.8121     0.6786 C.3     
  20 C20           -0.9096    -2.9093    -0.8224 C.3     
  21 H21           -0.1145     1.8971     1.0608 H       
  22 H22           -0.3315     1.8325    -0.7047 H       
  23 H23            1.8420     2.8925    -0.0230 H       
  24 H24            2.1569     1.4666     2.0231 H       
  25 H25            2.5110     0.0830     0.9607 H       
  26 H26            4.5335     1.4587     0.0200 H       
  27 H27            5.5947     2.5479     1.8638 H       
  28 H28            4.0223     2.3865     2.8641 H       
  29 H29            2.0474     1.6932    -3.3562 H       
  30 H30            0.9136     2.6149    -2.3398 H       
  31 H31            4.5678     2.1603    -2.1254 H       
  32 H32            4.1595     2.6079    -3.7991 H       
  33 H33            6.0768     3.9384    -3.0598 H       
  34 H34            4.6605     5.0030    -3.2296 H       
  35 H35            7.0537     5.4956    -1.4452 H       
  36 H36            5.6373     6.5602    -1.6150 H       
  37 H37            6.0920     5.9326    -0.0126 H       
  38 H38           -2.0800     1.3097     1.9601 H       
  39 H39           -3.1280    -0.1176     2.1411 H       
  40 H40           -1.4898    -0.1223     2.8373 H       
  41 H41           -2.0775    -0.2973    -1.9458 H       
  42 H42           -3.4988    -0.2280    -0.8765 H       
  43 H43           -2.4508     1.1993    -1.0574 H       
  44 H44           -0.9995    -2.4111     2.5866 H       
  45 H45           -0.6262    -3.9076     1.6982 H       
  46 H46            0.4218    -2.4803     1.5172 H       
  47 H47           -3.5159    -2.4691    -0.1561 H       
  48 H48           -2.9257    -3.9011     0.7211 H       
  49 H49           -3.2989    -2.4045     1.6094 H       
  50 H50            0.1172    -2.5710    -0.9610 H       
  51 H51           -0.9307    -3.9983    -0.7800 H       
  52 H52           -1.5209    -2.5663    -1.6571 H       
@<TRIPOS>BOND
   1    1   13 1
   2    1    2 1
   3    1   21 1
   4    1   22 1
   5    2    3 1
   6    2    6 1
   7    2   23 1
   8    3    4 1
   9    3   24 1
  10    3   25 1
  11    4    5 2
  12    4   26 1
  13    5   27 1
  14    5   28 1
  15    6    7 1
  16    7    8 1
  17    7   29 1
  18    7   30 1
  19    8    9 1
  20    9   10 1
  21    9   31 1
  22    9   32 1
  23   10   11 1
  24   10   33 1
  25   10   34 1
  26   11   12 1
  27   12   35 1
  28   12   36 1
  29   12   37 1
  30   13   14 1
  31   14   15 1
  32   14   16 1
  33   14   17 1
  34   15   38 1
  35   15   39 1
  36   15   40 1
  37   16   41 1
  38   16   42 1
  39   16   43 1
  40   17   18 1
  41   17   20 1
  42   17   19 1
  43   18   44 1
  44   18   45 1
  45   18   46 1
  46   19   47 1
  47   19   48 1
  48   19   49 1
  49   20   50 1
  50   20   51 1
  51   20   52 1

#	End of record

