#	Name: ASD07030071
#	Creating user name:	WinNT
#	Creation time:	15. 06. 2019 21:08

#	Modifying user name:	WinNT
#	Modification time:	15. 06. 2019 21:08

#	Program:	/corina/corina34_cracker 3.40 0067  02.08.2006

@<TRIPOS>MOLECULE
ASD07030071
  57   59    0    0    0
SMALL
NO_CHARGES


@<TRIPOS>ATOM
   1 N1            -0.0179     1.4702     0.0101 N.3     
   2 C2             0.0021    -0.0041     0.0020 C.3     
   3 C3             1.4820    -0.4413     0.0110 C.3     
   4 C4             2.2089     0.7978     0.5967 C.3     
   5 C5             1.3770     1.9600    -0.0006 C.3     
   6 N6             1.6723    -1.6126     0.8769 N.3     
   7 C7            -0.7682     1.9929    -1.1396 C.3     
   8 C8            -0.9813     3.4982    -0.9679 C.3     
   9 N9            -1.7316     4.0208    -2.1176 N.3     
  10 C10           -1.9554     5.4668    -1.9869 C.3     
  11 C11           -2.1713     6.2673    -3.2727 C.3     
  12 C12           -3.3474     6.0001    -2.3313 C.3     
  13 C13           -1.6222     7.6700    -3.3196 C.ar    
  14 C14           -0.6837     8.0122    -4.2755 C.ar    
  15 C15           -0.1789     9.2973    -4.3205 C.ar    
  16 C16           -0.6144    10.2448    -3.4055 C.ar    
  17 C17           -1.5561     9.8989    -2.4474 C.ar    
  18 C18           -2.0621     8.6140    -2.4101 C.ar    
  19 O19           -0.1189    11.5096    -3.4475 O.3     
  20 C20           -0.6128    12.4324    -2.4746 C.3     
  21 C21            0.0451    13.7734    -2.6747 C.ar    
  22 C22           -0.5315    14.7074    -3.5151 C.ar    
  23 C23            0.0715    15.9374    -3.6990 C.ar    
  24 C24            1.2523    16.2338    -3.0419 C.ar    
  25 C25            1.8290    15.2986    -2.2010 C.ar    
  26 C26            1.2221    14.0711    -2.0135 C.ar    
  27 Cl27           2.0106    17.7783    -3.2729 Cl      
  28 H28           -0.5030    -0.3866     0.8889 H       
  29 H29           -0.4892    -0.3766    -0.8968 H       
  30 H30            1.8287    -0.6487    -1.0014 H       
  31 H31            2.1590     0.8012     1.6856 H       
  32 H32            3.2429     0.8417     0.2547 H       
  33 H33            1.6974     2.1707    -1.0209 H       
  34 H34            1.4709     2.8516     0.6194 H       
  35 H35            2.6388    -1.9023     0.8860 H       
  36 H36            1.3411    -1.4285     1.8121 H       
  37 H37           -0.2061     1.8076    -2.0549 H       
  38 H38           -1.7352     1.4935    -1.1997 H       
  39 H39           -1.5434     3.6835    -0.0526 H       
  40 H40           -0.0143     3.9975    -0.9077 H       
  41 H41           -1.2623     3.8045    -2.9842 H       
  42 H42           -1.4163     5.9546    -1.1748 H       
  43 H43           -2.1472     5.7211    -4.2157 H       
  44 H44           -4.0972     5.2781    -2.6550 H       
  45 H45           -3.7241     6.8389    -1.7459 H       
  46 H46           -0.3448     7.2741    -4.9873 H       
  47 H47            0.5544     9.5640    -5.0672 H       
  48 H48           -1.8967    10.6348    -1.7340 H       
  49 H49           -2.7988     8.3455    -1.6674 H       
  50 H50           -1.6919    12.5367    -2.5876 H       
  51 H51           -0.3862    12.0622    -1.4748 H       
  52 H52           -1.4531    14.4758    -4.0282 H       
  53 H53           -0.3789    16.6669    -4.3558 H       
  54 H54            2.7508    15.5294    -1.6878 H       
  55 H55            1.6698    13.3426    -1.3537 H       
  56 Cl56           8.2429    22.7783     6.8121 Cl      
  57 H57            8.2429    24.1483     6.8121 H       
@<TRIPOS>BOND
   1    1    2 1
   2    1    5 1
   3    1    7 1
   4    2    3 1
   5    2   28 1
   6    2   29 1
   7    3    4 1
   8    3    6 1
   9    3   30 1
  10    4    5 1
  11    4   31 1
  12    4   32 1
  13    5   33 1
  14    5   34 1
  15    6   35 1
  16    6   36 1
  17    7    8 1
  18    7   37 1
  19    7   38 1
  20    8    9 1
  21    8   39 1
  22    8   40 1
  23    9   10 1
  24    9   41 1
  25   10   11 1
  26   10   12 1
  27   10   42 1
  28   11   12 1
  29   11   13 1
  30   11   43 1
  31   12   44 1
  32   12   45 1
  33   13   14 ar
  34   13   18 ar
  35   14   15 ar
  36   14   46 1
  37   15   16 ar
  38   15   47 1
  39   16   17 ar
  40   16   19 1
  41   17   18 ar
  42   17   48 1
  43   18   49 1
  44   19   20 1
  45   20   21 1
  46   20   50 1
  47   20   51 1
  48   21   22 ar
  49   21   26 ar
  50   22   23 ar
  51   22   52 1
  52   23   24 ar
  53   23   53 1
  54   24   25 ar
  55   24   27 1
  56   25   26 ar
  57   25   54 1
  58   26   55 1
  59   56   57 1

#	End of record

