#	Name: ASD03090625
#	Creating user name:	WinNT
#	Creation time:	15. 06. 2019 20:29

#	Modifying user name:	WinNT
#	Modification time:	15. 06. 2019 20:29

#	Program:	/corina/corina34_cracker 3.40 0067  02.08.2006

@<TRIPOS>MOLECULE
ASD03090625
  47   48    0    0    0
SMALL
NO_CHARGES


@<TRIPOS>ATOM
   1 N1             0.0767     1.3361     0.0276 N.am    
   2 C2             0.2045     0.1550     0.6642 C.2     
   3 O3             1.2938    -0.2029     1.0687 O.2     
   4 N4            -0.8753    -0.6294     0.8524 N.am    
   5 O5            -1.2674    -3.6811     2.3514 O.3     
   6 N6            -1.6929    -2.7132     1.7649 N.2     
   7 C7            -0.7431    -1.8516     1.5111 C.2     
   8 C8             0.4506    -2.4100     2.0409 C.2     
   9 C9             0.0523    -3.5891     2.5702 C.2     
  10 C10            0.9219    -4.6018     3.2695 C.3     
  11 C11            1.1834     2.1906    -0.0948 C.ar    
  12 C12            0.9919     3.5626    -0.2401 C.ar    
  13 C13            2.0855     4.4037    -0.3602 C.ar    
  14 C14            3.3691     3.8791    -0.3356 C.ar    
  15 C15            3.5587     2.5120    -0.1907 C.ar    
  16 C16            2.4684     1.6704    -0.0653 C.ar    
  17 O17            4.4430     4.7050    -0.4540 O.3     
  18 C18            4.1810     6.1095    -0.4852 C.3     
  19 C19            5.4177     6.8699    -0.0024 C.3     
  20 C20            3.8476     6.5344    -1.9167 C.3     
  21 O21           -0.2674     4.0755    -0.2645 O.3     
  22 C22           -0.3875     5.4990    -0.3015 C.3     
  23 C23           -0.2920     5.9814    -1.7503 C.3     
  24 C24           -1.7386     5.9122     0.2856 C.3     
  25 Cl25           5.1665     1.8581    -0.1608 Cl      
  26 H26           -0.7790     1.5937    -0.3494 H       
  27 H27           -1.7443    -0.3438     0.5297 H       
  28 H28            1.4457    -1.9906     2.0243 H       
  29 H29            0.3122    -5.4489     3.5840 H       
  30 H30            1.6987    -4.9467     2.5870 H       
  31 H31            1.3839    -4.1424     4.1434 H       
  32 H32            1.9389     5.4677    -0.4733 H       
  33 H33            2.6178     0.6072     0.0515 H       
  34 H34            3.3375     6.3362     0.1669 H       
  35 H35            6.2612     6.6431    -0.6544 H       
  36 H36            5.2178     7.9411    -0.0262 H       
  37 H37            5.6552     6.5672     1.0175 H       
  38 H38            2.9666     5.9926    -2.2607 H       
  39 H39            3.6477     7.6056    -1.9405 H       
  40 H40            4.6911     6.3076    -2.5688 H       
  41 H41            0.4154     5.9467     0.2842 H       
  42 H42            0.6705     5.6870    -2.1686 H       
  43 H43           -1.0949     5.5337    -2.3360 H       
  44 H44           -0.3837     7.0672    -1.7785 H       
  45 H45           -1.8066     5.5685     1.3178 H       
  46 H46           -1.8303     6.9980     0.2574 H       
  47 H47           -2.5415     5.4645    -0.3001 H       
@<TRIPOS>BOND
   1    1    2 am
   2    1   11 1
   3    1   26 1
   4    2    3 2
   5    2    4 am
   6    4    7 1
   7    4   27 1
   8    5    6 1
   9    5    9 1
  10    6    7 2
  11    7    8 1
  12    8    9 2
  13    8   28 1
  14    9   10 1
  15   10   29 1
  16   10   30 1
  17   10   31 1
  18   11   12 ar
  19   11   16 ar
  20   12   13 ar
  21   12   21 1
  22   13   14 ar
  23   13   32 1
  24   14   15 ar
  25   14   17 1
  26   15   16 ar
  27   15   25 1
  28   16   33 1
  29   17   18 1
  30   18   19 1
  31   18   20 1
  32   18   34 1
  33   19   35 1
  34   19   36 1
  35   19   37 1
  36   20   38 1
  37   20   39 1
  38   20   40 1
  39   21   22 1
  40   22   23 1
  41   22   24 1
  42   22   41 1
  43   23   42 1
  44   23   43 1
  45   23   44 1
  46   24   45 1
  47   24   46 1
  48   24   47 1

#	End of record

