#	Name: ASD05740010
#	Creating user name:	WinNT
#	Creation time:	15. 06. 2019 21:02

#	Modifying user name:	WinNT
#	Modification time:	15. 06. 2019 21:02

#	Program:	/corina/corina34_cracker 3.40 0067  02.08.2006

@<TRIPOS>MOLECULE
ASD05740010
  52   55    0    0    0
SMALL
NO_CHARGES


@<TRIPOS>ATOM
   1 C1             1.4520     1.8844    -1.7327 C.ar    
   2 C2             1.0519     3.9034     0.0141 C.ar    
   3 C3            -0.2985     4.2571     0.0284 C.ar    
   4 C4            -0.6681     5.5697     0.0398 C.ar    
   5 C5             0.3126     6.5694     0.0372 C.ar    
   6 C6             1.6763     6.2198     0.0229 C.ar    
   7 C7             2.0362     4.8816     0.0171 C.ar    
   8 C8            -0.0560     7.9858     0.0487 C.2     
   9 C9             0.9414     8.9091     0.0451 C.2     
  10 C10            2.2865     8.4882     0.0306 C.2     
  11 O11            2.6182     7.1875     0.0200 O.3     
  12 C12            0.6100    10.3791     0.0561 C.3     
  13 C13            0.6327    10.8886     1.4741 C.ar    
  14 C14            1.8024    11.3908     2.0296 C.ar    
  15 O15            3.1704     9.3261     0.0271 O.2     
  16 C16           -0.5121    10.8719     2.2498 C.ar    
  17 C17           -0.4523    11.3507     3.5549 C.ar    
  18 N18            0.6838    11.8165     4.0501 N.ar    
  19 C19            1.7900    11.8497     3.3312 C.ar    
  20 S20            1.5100     2.2020    -0.0005 S.3     
  21 N21           -1.5954    11.3402     4.3456 N.am    
  22 S22           -1.5324    11.9083     5.8998 S.o2    
  23 O23           -2.8509    11.7203     6.3954 O.2     
  24 O24           -0.4282    11.2258     6.4779 O.2     
  25 C25           -1.5022     8.4091     0.0637 C.3     
  26 N26            1.8433     0.7026    -2.1872 N.ar    
  27 C27            1.8123     0.4320    -3.4814 C.ar    
  28 C28            1.3639     1.4019    -4.3646 C.ar    
  29 C29            0.9621     2.6271    -3.8554 C.ar    
  30 N30            1.0130     2.8312    -2.5496 N.ar    
  31 C31           -1.1656    13.6758     5.7212 C.3     
  32 C32           -1.0809    14.3216     7.1056 C.3     
  33 H33           -1.0551     3.4865     0.0301 H       
  34 H34           -1.7143     5.8375     0.0505 H       
  35 H35            3.0790     4.6010     0.0061 H       
  36 H36            1.3462    10.9220    -0.5369 H       
  37 H37           -0.3822    10.5311    -0.3688 H       
  38 H38            2.7125    11.4215     1.4490 H       
  39 H39           -1.4401    10.4927     1.8480 H       
  40 H40            2.6985    12.2367     3.7686 H       
  41 H41           -2.4301    11.0002     3.9869 H       
  42 H42           -2.1396     7.5248     0.0640 H       
  43 H43           -1.6989     8.9990     0.9588 H       
  44 H44           -1.7143     9.0095    -0.8210 H       
  45 H45            2.1328    -0.5328    -3.8458 H       
  46 H46            1.3287     1.2074    -5.4263 H       
  47 H47            0.6079     3.4042    -4.5165 H       
  48 H48           -0.2140    13.7989     5.2040 H       
  49 H49           -1.9570    14.1547     5.1447 H       
  50 H50           -2.0325    14.1984     7.6228 H       
  51 H51           -0.2895    13.8427     7.6821 H       
  52 H52           -0.8605    15.3836     6.9983 H       
@<TRIPOS>BOND
   1    1   26 ar
   2    1   20 1
   3    1   30 ar
   4    2    3 ar
   5    2   20 1
   6    2    7 ar
   7    3    4 ar
   8    3   33 1
   9    4    5 ar
  10    4   34 1
  11    5    6 ar
  12    5    8 1
  13    6    7 ar
  14    6   11 1
  15    7   35 1
  16    8    9 2
  17    8   25 1
  18    9   10 1
  19    9   12 1
  20   10   11 1
  21   10   15 2
  22   12   13 1
  23   12   36 1
  24   12   37 1
  25   13   14 ar
  26   13   16 ar
  27   14   19 ar
  28   14   38 1
  29   16   17 ar
  30   16   39 1
  31   17   18 ar
  32   17   21 1
  33   18   19 ar
  34   19   40 1
  35   21   22 am
  36   21   41 1
  37   22   23 2
  38   22   24 2
  39   22   31 1
  40   25   42 1
  41   25   43 1
  42   25   44 1
  43   26   27 ar
  44   27   28 ar
  45   27   45 1
  46   28   29 ar
  47   28   46 1
  48   29   30 ar
  49   29   47 1
  50   31   32 1
  51   31   48 1
  52   31   49 1
  53   32   50 1
  54   32   51 1
  55   32   52 1

#	End of record

