#	Name: ASD03092844
#	Creating user name:	WinNT
#	Creation time:	15. 06. 2019 20:33

#	Modifying user name:	WinNT
#	Modification time:	15. 06. 2019 20:33

#	Program:	/corina/corina34_cracker 3.40 0067  02.08.2006

@<TRIPOS>MOLECULE
ASD03092844
  50   53    0    0    0
SMALL
NO_CHARGES


@<TRIPOS>ATOM
   1 N1             0.5298    -2.1813     0.9274 N.am    
   2 S2             0.7028    -0.8767    -0.0778 S.o2    
   3 O3             0.1426     0.2349     0.6073 O.2     
   4 O4             2.0443    -0.9058    -0.5456 O.2     
   5 C5            -0.3206    -1.1621    -1.4835 C.ar    
   6 C6             0.1914    -1.8265    -2.5841 C.ar    
   7 C7            -0.6028    -2.0541    -3.6888 C.ar    
   8 C8            -1.9276    -1.6125    -3.6958 C.ar    
   9 C9            -2.7832    -1.8529    -4.8738 C.2     
  10 S10           -4.4137    -2.5216    -4.8528 S.3     
  11 C11           -4.4922    -2.3907    -6.6068 C.2     
  12 N12           -3.3782    -1.8930    -7.0619 N.2     
  13 C13           -2.4506    -1.5883    -6.1878 C.2     
  14 C14           -1.1440    -1.0091    -6.5796 C.ar    
  15 C15           -0.6468     0.1102    -5.9131 C.ar    
  16 C16            0.5705     0.6452    -6.2815 C.ar    
  17 C17            1.2980     0.0726    -7.3109 C.ar    
  18 Cl18           2.8292     0.7503    -7.7690 Cl      
  19 C19            0.8090    -1.0390    -7.9760 C.ar    
  20 C20           -0.4047    -1.5851    -7.6121 C.ar    
  21 C21           -5.6436    -2.7847    -7.4343 C.2     
  22 O22           -6.6856    -3.1225    -6.9053 O.2     
  23 N23           -5.5436    -2.7712    -8.7783 N.am    
  24 C24           -6.7270    -2.9970    -9.6193 C.3     
  25 C25           -6.4236    -4.1315   -10.6030 C.3     
  26 C26           -5.1514    -3.7966   -11.3850 C.3     
  27 C27           -3.9736    -3.6695   -10.4161 C.3     
  28 C28           -4.2504    -2.5242    -9.4303 C.3     
  29 C29           -2.4397    -0.9414    -2.5800 C.ar    
  30 F30           -3.7202    -0.5107    -2.5770 F       
  31 C31           -1.6333    -0.7259    -1.4788 C.ar    
  32 H32            0.1946    -2.0576     1.8292 H       
  33 H33            0.7599    -3.0696     0.6132 H       
  34 H34            1.2161    -2.1675    -2.5784 H       
  35 H35           -0.2007    -2.5726    -4.5467 H       
  36 H36           -1.2137     0.5578    -5.1102 H       
  37 H37            0.9563     1.5123    -5.7661 H       
  38 H38            1.3805    -1.4818    -8.7783 H       
  39 H39           -0.7832    -2.4548    -8.1286 H       
  40 H40           -7.5739    -3.2744    -8.9915 H       
  41 H41           -6.9617    -2.0873   -10.1718 H       
  42 H42           -6.2783    -5.0611   -10.0526 H       
  43 H43           -7.2573    -4.2450   -11.2959 H       
  44 H44           -4.9469    -4.5908   -12.1030 H       
  45 H45           -5.2887    -2.8543   -11.9154 H       
  46 H46           -3.8513    -4.6034    -9.8675 H       
  47 H47           -3.0636    -3.4541   -10.9760 H       
  48 H48           -4.2871    -1.5766    -9.9678 H       
  49 H49           -3.4625    -2.4895    -8.6779 H       
  50 H50           -2.0275    -0.2123    -0.6144 H       
@<TRIPOS>BOND
   1    1    2 am
   2    1   32 1
   3    1   33 1
   4    2    3 2
   5    2    4 2
   6    2    5 1
   7    5   31 ar
   8    5    6 ar
   9    6    7 ar
  10    6   34 1
  11    7    8 ar
  12    7   35 1
  13    8    9 1
  14    8   29 ar
  15    9   13 2
  16    9   10 1
  17   10   11 1
  18   11   12 2
  19   11   21 1
  20   12   13 1
  21   13   14 1
  22   14   20 ar
  23   14   15 ar
  24   15   16 ar
  25   15   36 1
  26   16   17 ar
  27   16   37 1
  28   17   18 1
  29   17   19 ar
  30   19   20 ar
  31   19   38 1
  32   20   39 1
  33   21   22 2
  34   21   23 am
  35   23   28 1
  36   23   24 1
  37   24   25 1
  38   24   40 1
  39   24   41 1
  40   25   26 1
  41   25   42 1
  42   25   43 1
  43   26   27 1
  44   26   44 1
  45   26   45 1
  46   27   28 1
  47   27   46 1
  48   27   47 1
  49   28   48 1
  50   28   49 1
  51   29   30 1
  52   29   31 ar
  53   31   50 1

#	End of record

