#	Name: ASD08150332
#	Creating user name:	WinNT
#	Creation time:	15. 06. 2019 21:15

#	Modifying user name:	WinNT
#	Modification time:	15. 06. 2019 21:15

#	Program:	/corina/corina34_cracker 3.40 0067  02.08.2006

@<TRIPOS>MOLECULE
ASD08150332
  78   84    0    0    0
SMALL
NO_CHARGES


@<TRIPOS>ATOM
   1 N1             0.1213     1.6494    -1.3390 N.am    
   2 C2             0.1499     0.3763    -1.7567 C.2     
   3 N3             1.2750    -0.3620    -1.7751 N.am    
   4 C4             2.5374     0.2454    -1.3187 C.3     
   5 C5             2.4732     1.6814    -0.8545 C.ar    
   6 C6             3.5967     2.3524    -0.4055 C.ar    
   7 N7             3.5314     3.6025    -0.0032 N.ar    
   8 C8             2.3804     4.2853    -0.0085 C.ar    
   9 C9             1.1874     3.6638    -0.4556 C.ar    
  10 C10            1.2449     2.3201    -0.8895 C.ar    
  11 C11           -0.0131     4.3826    -0.4584 C.ar    
  12 C12           -0.0212     5.6962    -0.0230 C.ar    
  13 C13            1.1635     6.3051     0.4177 C.ar    
  14 C14            2.3376     5.6219     0.4275 C.ar    
  15 O15           -0.8864    -0.1344    -2.1354 O.2     
  16 C16           -1.2899     6.4652    -0.0228 C.ar    
  17 C17           -1.1022     2.3348    -1.3640 C.ar    
  18 C18           -1.3743     3.2325    -2.3881 C.ar    
  19 C19           -2.5784     3.9068    -2.4132 C.ar    
  20 C20           -3.5182     3.6875    -1.4139 C.ar    
  21 C21           -3.2459     2.7898    -0.3900 C.ar    
  22 C22           -2.0433     2.1115    -0.3682 C.ar    
  23 N23           -4.7383     4.3711    -1.4389 N.3     
  24 C24           -2.5146     5.7909    -0.0981 C.ar    
  25 C25           -5.7786     3.5675    -2.0948 C.3     
  26 C26           -7.1328     4.2683    -1.9420 C.3     
  27 N27           -7.0047     5.6461    -2.4403 N.am    
  28 C28           -5.8991     6.4708    -1.9296 C.3     
  29 C29           -4.5934     5.6834    -2.0829 C.3     
  30 C30           -7.8776     6.1401    -3.3405 C.2     
  31 O31           -8.7838     5.4461    -3.7506 O.2     
  32 C32           -7.7277     7.5549    -3.8376 C.3     
  33 C33           -3.6905     6.4814    -0.0991 C.ar    
  34 C34           -3.6854     7.8730    -0.0252 C.ar    
  35 C35           -2.4598     8.5639     0.0510 C.ar    
  36 C36           -1.2591     7.8489     0.0576 C.ar    
  37 C37           -8.8386     7.8623    -4.8437 C.3     
  38 C38            1.2449    -1.7503    -2.2420 C.3     
  39 N39           -4.6741     8.8222    -0.0065 N.pl3   
  40 N40           -4.0902    10.0900     0.0798 N.2     
  41 C41           -2.7928     9.9840     0.1159 C.2     
  42 C42           -1.8107    11.1232     0.2085 C.3     
  43 C43           -4.2649     2.5520     0.6945 C.3     
  44 F44           -3.7171     1.7168     1.6741 F       
  45 F45           -4.6252     3.7742     1.2720 F       
  46 F46           -5.3984     1.9441     0.1441 F       
  47 H47            2.9229    -0.3572    -0.4963 H       
  48 H48            3.2540     0.1883    -2.1380 H       
  49 H49            4.5466     1.8388    -0.3845 H       
  50 H50           -0.9261     3.9161    -0.7979 H       
  51 H51            1.1418     7.3312     0.7539 H       
  52 H52            3.2401     6.1061     0.7703 H       
  53 H53           -0.6435     3.4032    -3.1647 H       
  54 H54           -2.7898     4.6051    -3.2095 H       
  55 H55           -1.8332     1.4103     0.4259 H       
  56 H56           -2.5282     4.7126    -0.1563 H       
  57 H57           -5.5419     3.4603    -3.1534 H       
  58 H58           -5.8243     2.5825    -1.6303 H       
  59 H59           -7.8872     3.7375    -2.5227 H       
  60 H60           -7.4202     4.2843    -0.8907 H       
  61 H61           -5.8379     7.3963    -2.5022 H       
  62 H62           -6.0679     6.6986    -0.8772 H       
  63 H63           -3.7796     6.2329    -1.6098 H       
  64 H64           -4.3733     5.5467    -3.1417 H       
  65 H65           -7.7980     8.2448    -2.9967 H       
  66 H66           -6.7576     7.6692    -4.3213 H       
  67 H67           -4.6280     5.9485    -0.1576 H       
  68 H68           -0.3151     8.3703     0.1162 H       
  69 H69           -8.7684     7.1724    -5.6846 H       
  70 H70           -9.8087     7.7480    -4.3600 H       
  71 H71           -8.7302     8.8856    -5.2033 H       
  72 H72            0.2282    -2.0135    -2.5341 H       
  73 H73            1.9091    -1.8599    -3.0992 H       
  74 H74            1.5749    -2.4106    -1.4399 H       
  75 H75           -5.6266     8.6431    -0.0469 H       
  76 H76           -1.6072    11.3432     1.2565 H       
  77 H77           -0.8828    10.8446    -0.2910 H       
  78 H78           -2.2317    12.0059    -0.2729 H       
@<TRIPOS>BOND
   1    1    2 am
   2    1   10 1
   3    1   17 1
   4    2    3 am
   5    2   15 2
   6    3    4 1
   7    3   38 1
   8    4    5 1
   9    4   47 1
  10    4   48 1
  11    5    6 ar
  12    5   10 ar
  13    6    7 ar
  14    6   49 1
  15    7    8 ar
  16    8    9 ar
  17    8   14 ar
  18    9   10 ar
  19    9   11 ar
  20   11   12 ar
  21   11   50 1
  22   12   13 ar
  23   12   16 1
  24   13   14 ar
  25   13   51 1
  26   14   52 1
  27   16   24 ar
  28   16   36 ar
  29   17   18 ar
  30   17   22 ar
  31   18   19 ar
  32   18   53 1
  33   19   20 ar
  34   19   54 1
  35   20   21 ar
  36   20   23 1
  37   21   22 ar
  38   21   43 1
  39   22   55 1
  40   23   25 1
  41   23   29 1
  42   24   33 ar
  43   24   56 1
  44   25   26 1
  45   25   57 1
  46   25   58 1
  47   26   27 1
  48   26   59 1
  49   26   60 1
  50   27   28 1
  51   27   30 am
  52   28   29 1
  53   28   61 1
  54   28   62 1
  55   29   63 1
  56   29   64 1
  57   30   31 2
  58   30   32 1
  59   32   37 1
  60   32   65 1
  61   32   66 1
  62   33   34 ar
  63   33   67 1
  64   34   35 ar
  65   34   39 1
  66   35   36 ar
  67   35   41 1
  68   36   68 1
  69   37   69 1
  70   37   70 1
  71   37   71 1
  72   38   72 1
  73   38   73 1
  74   38   74 1
  75   39   40 1
  76   39   75 1
  77   40   41 2
  78   41   42 1
  79   42   76 1
  80   42   77 1
  81   42   78 1
  82   43   44 1
  83   43   45 1
  84   43   46 1

#	End of record

