#	Name: ASD03731650
#	Creating user name:	WinNT
#	Creation time:	15. 06. 2019 20:46

#	Modifying user name:	WinNT
#	Modification time:	15. 06. 2019 20:46

#	Program:	/corina/corina34_cracker 3.40 0067  02.08.2006

@<TRIPOS>MOLECULE
ASD03731650
  36   37    0    0    0
SMALL
NO_CHARGES


@<TRIPOS>ATOM
   1 C1            -0.1366     1.4672     0.0334 C.2     
   2 C2            -0.0854    -0.0063     0.0192 C.ar    
   3 C3             1.1399    -0.6647    -0.1384 C.ar    
   4 C4             1.1826    -2.0444    -0.1511 C.ar    
   5 C5             0.0128    -2.7784    -0.0078 C.ar    
   6 C6            -1.2080    -2.1272     0.1492 C.ar    
   7 C7            -1.2597    -0.7503     0.1688 C.ar    
   8 O8             0.8865     2.1124    -0.0919 O.2     
   9 N9            -1.3181     2.0990     0.1796 N.am    
  10 S10           -1.3756     3.7539     0.1956 S.o2    
  11 O11           -2.7508     4.0549     0.3894 O.2     
  12 O12           -0.4007     4.1292     1.1588 O.2     
  13 C13           -0.8459     4.2413    -1.4695 C.3     
  14 O14            0.0593    -4.1350    -0.0213 O.3     
  15 C15           -0.1522    -4.7688    -1.2045 C.ar    
  16 C16           -0.0463    -6.1504    -1.2816 C.ar    
  17 C17           -0.2622    -6.7922    -2.4854 C.ar    
  18 C18           -0.5832    -6.0593    -3.6133 C.ar    
  19 C19           -0.6892    -4.6829    -3.5393 C.ar    
  20 C20           -0.4799    -4.0364    -2.3363 C.ar    
  21 C21            0.3044    -6.9496    -0.0531 C.3     
  22 F22           -2.3431    -2.8467     0.2877 F       
  23 F23            2.2785     0.0489    -0.2783 F       
  24 H24            2.1272    -2.5536    -0.2729 H       
  25 H25           -2.2066    -0.2465     0.2955 H       
  26 H26           -2.1347     1.5844     0.2756 H       
  27 H27           -1.5281     3.8175    -2.2064 H       
  28 H28           -0.8540     5.3283    -1.5497 H       
  29 H29            0.1628     3.8710    -1.6528 H       
  30 H30           -0.1800    -7.8674    -2.5459 H       
  31 H31           -0.7509    -6.5630    -4.5538 H       
  32 H32           -0.9396    -4.1128    -4.4217 H       
  33 H33           -0.5673    -2.9615    -2.2780 H       
  34 H34           -0.6094    -7.2315     0.4701 H       
  35 H35            0.8468    -7.8483    -0.3468 H       
  36 H36            0.9294    -6.3472     0.6061 H       
@<TRIPOS>BOND
   1    1    2 1
   2    1    8 2
   3    1    9 am
   4    2    3 ar
   5    2    7 ar
   6    3    4 ar
   7    3   23 1
   8    4    5 ar
   9    4   24 1
  10    5    6 ar
  11    5   14 1
  12    6    7 ar
  13    6   22 1
  14    7   25 1
  15    9   10 am
  16    9   26 1
  17   10   11 2
  18   10   12 2
  19   10   13 1
  20   13   27 1
  21   13   28 1
  22   13   29 1
  23   14   15 1
  24   15   16 ar
  25   15   20 ar
  26   16   17 ar
  27   16   21 1
  28   17   18 ar
  29   17   30 1
  30   18   19 ar
  31   18   31 1
  32   19   20 ar
  33   19   32 1
  34   20   33 1
  35   21   34 1
  36   21   35 1
  37   21   36 1

#	End of record

