#	Name: ASD08178327
#	Creating user name:	WinNT
#	Creation time:	15. 06. 2019 21:18

#	Modifying user name:	WinNT
#	Modification time:	15. 06. 2019 21:18

#	Program:	/corina/corina34_cracker 3.40 0067  02.08.2006

@<TRIPOS>MOLECULE
ASD08178327
  78   81    0    0    0
SMALL
NO_CHARGES


@<TRIPOS>ATOM
   1 N1            -0.0168     1.3902     0.0097 N.am    
   2 C2            -0.2173     0.0103     0.0231 C.ar    
   3 C3             0.8683    -0.8557    -0.0926 C.ar    
   4 N4            -1.4399    -0.4832     0.1513 N.ar    
   5 N5            -1.6667    -1.7463     0.1686 N.ar    
   6 C6            -0.7002    -2.6368     0.0602 C.ar    
   7 C7             0.6159    -2.2190    -0.0733 C.ar    
   8 C8            -1.0247    -4.1082     0.0874 C.3     
   9 C9            -1.8115    -4.4335     1.3586 C.3     
  10 C10           -2.1410    -5.9273     1.3862 C.3     
  11 C11           -2.9278    -6.2527     2.6574 C.3     
  12 C12           -3.2523    -7.7241     2.6845 C.2     
  13 N13           -2.5213    -8.6581     3.2049 N.2     
  14 N14           -2.9690    -9.8359     3.1257 N.2     
  15 C15           -4.1130   -10.0077     2.5350 C.2     
  16 S16           -4.6995    -8.4828     2.0200 S.3     
  17 N17           -4.7575   -11.2270     2.3553 N.am    
  18 C18           -4.1929   -12.3617     2.8139 C.2     
  19 C19           -4.8913   -13.6828     2.6192 C.3     
  20 O20           -3.1229   -12.3195     3.3832 O.2     
  21 C21           -4.9700   -13.9973     1.1475 C.ar    
  22 C22           -6.1042   -13.6669     0.4299 C.ar    
  23 C23           -6.1769   -13.9548    -0.9204 C.ar    
  24 C24           -5.1157   -14.5735    -1.5534 C.ar    
  25 C25           -3.9799   -14.9045    -0.8357 C.ar    
  26 C26           -3.9055   -14.6111     0.5141 C.ar    
  27 C27           -1.0750     2.2250     0.0167 C.2     
  28 C28           -0.8601     3.7130     0.1198 C.3     
  29 O29           -2.2000     1.7786    -0.0599 O.2     
  30 C30           -2.1935     4.4152     0.1067 C.ar    
  31 C31           -2.8565     4.6619     1.2943 C.ar    
  32 C32           -2.7509     4.8175    -1.0926 C.ar    
  33 C33           -3.9740     5.4616    -1.1047 C.ar    
  34 C34           -4.6398     5.7029     0.0824 C.ar    
  35 C35           -4.0796     5.3059     1.2822 C.ar    
  36 Cl36          -2.6466   -15.6822    -1.6301 Cl      
  37 O37           -4.1472   -14.7283     3.2985 O.3     
  38 C38           -4.8508   -15.7710     3.7669 C.2     
  39 O39           -6.0488   -15.8088     3.6144 O.2     
  40 C40           -4.1466   -16.8945     4.4831 C.3     
  41 C41           -3.5103   -17.8340     3.4567 C.3     
  42 C42           -2.7953   -18.9746     4.1838 C.3     
  43 C43           -4.5990   -18.4107     2.5494 C.3     
  44 N44           -5.1163   -17.6413     5.2955 N.3     
  45 H45            0.8842     1.7494    -0.0006 H       
  46 H46            1.8745    -0.4770    -0.1944 H       
  47 H47            1.4199    -2.9345    -0.1636 H       
  48 H48           -1.6240    -4.3643    -0.7864 H       
  49 H49           -0.0997    -4.6845     0.0751 H       
  50 H50           -1.2123    -4.1774     2.2323 H       
  51 H51           -2.7366    -3.8571     1.3708 H       
  52 H52           -2.7402    -6.1835     0.5124 H       
  53 H53           -1.2159    -6.5037     1.3739 H       
  54 H54           -2.3286    -5.9966     3.5311 H       
  55 H55           -3.8529    -5.6763     2.6696 H       
  56 H56           -5.6133   -11.2607     1.9000 H       
  57 H57           -5.8981   -13.6260     3.0329 H       
  58 H58           -6.9341   -13.1841     0.9244 H       
  59 H59           -7.0634   -13.6964    -1.4805 H       
  60 H60           -5.1729   -14.7989    -2.6081 H       
  61 H61           -3.0193   -14.8692     1.0749 H       
  62 H62           -0.3385     3.9413     1.0493 H       
  63 H63           -0.2620     4.0532    -0.7255 H       
  64 H64           -2.4191     4.3512     2.2316 H       
  65 H65           -2.2307     4.6290    -2.0201 H       
  66 H66           -4.4092     5.7766    -2.0416 H       
  67 H67           -5.5952     6.2064     0.0730 H       
  68 H68           -4.5998     5.4945     2.2097 H       
  69 H69           -3.3710   -16.4837     5.1295 H       
  70 H70           -2.7908   -17.2799     2.8539 H       
  71 H71           -3.5148   -19.5288     4.7866 H       
  72 H72           -2.3421   -19.6440     3.4526 H       
  73 H73           -2.0198   -18.5638     4.8302 H       
  74 H74           -5.3185   -18.9648     3.1523 H       
  75 H75           -5.1084   -17.5981     2.0315 H       
  76 H76           -4.1457   -19.0800     1.8183 H       
  77 H77           -5.5033   -17.0588     6.0229 H       
  78 H78           -5.8460   -18.0324     4.7188 H       
@<TRIPOS>BOND
   1    1    2 1
   2    1   27 am
   3    1   45 1
   4    2    3 ar
   5    2    4 ar
   6    3    7 ar
   7    3   46 1
   8    4    5 ar
   9    5    6 ar
  10    6    7 ar
  11    6    8 1
  12    7   47 1
  13    8    9 1
  14    8   48 1
  15    8   49 1
  16    9   10 1
  17    9   50 1
  18    9   51 1
  19   10   11 1
  20   10   52 1
  21   10   53 1
  22   11   12 1
  23   11   54 1
  24   11   55 1
  25   12   13 2
  26   12   16 1
  27   13   14 1
  28   14   15 2
  29   15   16 1
  30   15   17 1
  31   17   18 am
  32   17   56 1
  33   18   19 1
  34   18   20 2
  35   19   21 1
  36   19   37 1
  37   19   57 1
  38   21   22 ar
  39   21   26 ar
  40   22   23 ar
  41   22   58 1
  42   23   24 ar
  43   23   59 1
  44   24   25 ar
  45   24   60 1
  46   25   26 ar
  47   25   36 1
  48   26   61 1
  49   27   28 1
  50   27   29 2
  51   28   30 1
  52   28   62 1
  53   28   63 1
  54   30   31 ar
  55   30   32 ar
  56   31   35 ar
  57   31   64 1
  58   32   33 ar
  59   32   65 1
  60   33   34 ar
  61   33   66 1
  62   34   35 ar
  63   34   67 1
  64   35   68 1
  65   37   38 1
  66   38   39 2
  67   38   40 1
  68   40   41 1
  69   40   44 1
  70   40   69 1
  71   41   42 1
  72   41   43 1
  73   41   70 1
  74   42   71 1
  75   42   72 1
  76   42   73 1
  77   43   74 1
  78   43   75 1
  79   43   76 1
  80   44   77 1
  81   44   78 1

#	End of record

