#	Name: ASD08178002
#	Creating user name:	WinNT
#	Creation time:	15. 06. 2019 21:18

#	Modifying user name:	WinNT
#	Modification time:	15. 06. 2019 21:18

#	Program:	/corina/corina34_cracker 3.40 0067  02.08.2006

@<TRIPOS>MOLECULE
ASD08178002
  31   32    0    0    0
SMALL
NO_CHARGES


@<TRIPOS>ATOM
   1 C1            -0.0187     1.5258     0.0104 C.3     
   2 C2             0.0021    -0.0041     0.0020 C.3     
   3 C3            -1.4333    -0.5336     0.0129 C.3     
   4 C4            -1.4126    -2.0635     0.0045 C.3     
   5 C5            -2.8479    -2.5931     0.0153 C.3     
   6 S6             2.3835     2.3993     1.4189 S.3     
   7 C7             3.6922     2.8924     0.3421 C.2     
   8 N8             3.2720     2.7484    -0.8822 N.2     
   9 N9             2.0992     2.3169    -1.0510 N.2     
  10 C10            1.3951     2.0474    -0.0003 C.2     
  11 N11            4.9424     3.3509     0.7299 N.pl3   
  12 S12           -2.8270    -5.1311    -1.4252 S.3     
  13 C13           -2.7984    -6.5428    -0.3661 C.2     
  14 N14           -2.7927    -6.1141     0.8637 N.2     
  15 N15           -2.8077    -4.8668     1.0481 N.2     
  16 C16           -2.8275    -4.0999     0.0070 C.2     
  17 N17           -2.7849    -7.8694    -0.7706 N.pl3   
  18 H18           -0.5459     1.8868    -0.8726 H       
  19 H19           -0.5289     1.8773     0.9072 H       
  20 H20            0.5123    -0.3556    -0.8948 H       
  21 H21            0.5293    -0.3651     0.8851 H       
  22 H22           -1.9435    -0.1821     0.9097 H       
  23 H23           -1.9605    -0.1726    -0.8702 H       
  24 H24           -0.9024    -2.4150    -0.8923 H       
  25 H25           -0.8854    -2.4246     0.8875 H       
  26 H26           -3.3581    -2.2415     0.9121 H       
  27 H27           -3.3751    -2.2320    -0.8677 H       
  28 H28            5.1616     3.4236     1.6720 H       
  29 H29            5.5976     3.5989     0.0590 H       
  30 H30           -2.7911    -8.0884    -1.7156 H       
  31 H31           -2.7693    -8.5782    -0.1086 H       
@<TRIPOS>BOND
   1    1    2 1
   2    1   10 1
   3    1   18 1
   4    1   19 1
   5    2    3 1
   6    2   20 1
   7    2   21 1
   8    3    4 1
   9    3   22 1
  10    3   23 1
  11    4    5 1
  12    4   24 1
  13    4   25 1
  14    5   16 1
  15    5   26 1
  16    5   27 1
  17    6    7 1
  18    6   10 1
  19    7    8 2
  20    7   11 1
  21    8    9 1
  22    9   10 2
  23   11   28 1
  24   11   29 1
  25   12   13 1
  26   12   16 1
  27   13   14 2
  28   13   17 1
  29   14   15 1
  30   15   16 2
  31   17   30 1
  32   17   31 1

#	End of record

