#	Name: ASD01910148
#	Creating user name:	WinNT
#	Creation time:	15. 06. 2019 19:55

#	Modifying user name:	WinNT
#	Modification time:	15. 06. 2019 19:55

#	Program:	/corina/corina34_cracker 3.40 0067  02.08.2006

@<TRIPOS>MOLECULE
ASD01910148
  23   24    0    0    0
SMALL
NO_CHARGES


@<TRIPOS>ATOM
   1 C1            -0.0173     1.4278     0.0099 C.2     
   2 C2             0.0021    -0.0041     0.0020 C.1     
   3 C3             0.0180    -1.1779    -0.0044 C.1     
   4 C4             0.0374    -2.6098    -0.0123 C.ar    
   5 C5            -1.1612    -3.3283    -0.0047 C.ar    
   6 C6            -1.1346    -4.7072    -0.0123 C.ar    
   7 C7             0.0750    -5.3793    -0.0270 C.ar    
   8 C8             1.2659    -4.6745    -0.0346 C.ar    
   9 C9             1.2550    -3.2954    -0.0334 C.ar    
  10 C10            1.1070     2.1812     0.0032 C.2     
  11 S11            0.6220     3.8748     0.0169 S.3     
  12 C12           -1.0247     3.4184     0.0302 C.2     
  13 N13           -1.1399     2.1366     0.0187 N.2     
  14 C14           -2.1821     4.3834     0.0465 C.3     
  15 H15           -2.1060    -2.8052     0.0074 H       
  16 H16           -2.0601    -5.2639    -0.0065 H       
  17 H17            0.0896    -6.4592    -0.0322 H       
  18 H18            2.2061    -5.2058    -0.0457 H       
  19 H19            2.1852    -2.7467    -0.0397 H       
  20 H20            2.1212     1.8101    -0.0079 H       
  21 H21           -1.8030     5.4054     0.0479 H       
  22 H22           -2.7989     4.2260    -0.8383 H       
  23 H23           -2.7814     4.2170     0.9416 H       
@<TRIPOS>BOND
   1    1    2 1
   2    1   10 2
   3    1   13 1
   4    2    3 3
   5    3    4 1
   6    4    5 ar
   7    4    9 ar
   8    5    6 ar
   9    5   15 1
  10    6    7 ar
  11    6   16 1
  12    7    8 ar
  13    7   17 1
  14    8    9 ar
  15    8   18 1
  16    9   19 1
  17   10   11 1
  18   10   20 1
  19   11   12 1
  20   12   13 2
  21   12   14 1
  22   14   21 1
  23   14   22 1
  24   14   23 1

#	End of record

