#	Name: ASD01230857
#	Creating user name:	WinNT
#	Creation time:	15. 06. 2019 19:15

#	Modifying user name:	WinNT
#	Modification time:	15. 06. 2019 19:15

#	Program:	/corina/corina34_cracker 3.40 0067  02.08.2006

@<TRIPOS>MOLECULE
ASD01230857
  45   48    0    0    0
SMALL
NO_CHARGES


@<TRIPOS>ATOM
   1 C1            -0.2123     2.2463     0.4918 C.3     
   2 C2            -0.3694     0.9094     1.2214 C.3     
   3 C3            -1.8374     0.5524     1.4079 C.3     
   4 C4            -2.7288     1.1478     0.3270 C.3     
   5 N5            -1.9920     1.3422    -0.9239 N.pl3   
   6 C6            -0.8390     2.0824    -0.8822 C.2     
   7 C7            -2.4599     0.7322    -2.1659 C.3     
   8 C8            -2.5497     1.8008    -3.2566 C.3     
   9 S9            -0.9483     2.6341    -3.4140 S.o2    
  10 N10           -0.3108     2.6483    -1.8955 N.am    
  11 C11            1.2491     2.5866     0.3524 C.ar    
  12 O12           -0.0440     1.8332    -4.1624 O.2     
  13 O13           -1.1328     4.0082    -3.7256 O.2     
  14 C14            1.7436     3.7493     0.9141 C.ar    
  15 C15            3.0828     4.0636     0.7878 C.ar    
  16 C16            3.9321     3.2111     0.0969 C.ar    
  17 C17            3.4334     2.0446    -0.4654 C.ar    
  18 C18            2.0943     1.7327    -0.3320 C.ar    
  19 O19            5.2497     3.5181    -0.0292 O.3     
  20 C20            6.0997     3.0952     0.9443 C.ar    
  21 C21            5.6344     2.2822     1.9668 C.ar    
  22 C22            6.5003     1.8527     2.9565 C.ar    
  23 C23            7.8328     2.2352     2.9266 C.ar    
  24 C24            8.2985     3.0466     1.9067 C.ar    
  25 C25            7.4361     3.4725     0.9122 C.ar    
  26 F26            8.6772     1.8158     3.8943 F       
  27 F27            6.0474     1.0606     3.9528 F       
  28 F28            7.8910     4.2645    -0.0832 F       
  29 H29           -0.7257     3.0334     1.0441 H       
  30 H30            0.1176     0.1261     0.6405 H       
  31 H31            0.1085     0.9774     2.1986 H       
  32 H32           -1.9406    -0.5326     1.3910 H       
  33 H33           -2.1683     0.9202     2.3791 H       
  34 H34           -3.5677     0.4757     0.1461 H       
  35 H35           -3.1108     2.1095     0.6692 H       
  36 H36           -1.7607    -0.0447    -2.4751 H       
  37 H37           -3.4444     0.2923    -2.0063 H       
  38 H38           -2.8102     1.3313    -4.2052 H       
  39 H39           -3.3144     2.5300    -2.9892 H       
  40 H40            1.0822     4.4125     1.4517 H       
  41 H41            3.4684     4.9723     1.2261 H       
  42 H42            4.0922     1.3796    -1.0039 H       
  43 H43            1.7057     0.8248    -0.7692 H       
  44 H44            4.5965     1.9847     1.9906 H       
  45 H45            9.3365     3.3438     1.8846 H       
@<TRIPOS>BOND
   1    1    2 1
   2    1   11 1
   3    1    6 1
   4    1   29 1
   5    2    3 1
   6    2   30 1
   7    2   31 1
   8    3    4 1
   9    3   32 1
  10    3   33 1
  11    4    5 1
  12    4   34 1
  13    4   35 1
  14    5    6 1
  15    5    7 1
  16    6   10 2
  17    7    8 1
  18    7   36 1
  19    7   37 1
  20    8    9 1
  21    8   38 1
  22    8   39 1
  23    9   10 am
  24    9   12 2
  25    9   13 2
  26   11   14 ar
  27   11   18 ar
  28   14   15 ar
  29   14   40 1
  30   15   16 ar
  31   15   41 1
  32   16   17 ar
  33   16   19 1
  34   17   18 ar
  35   17   42 1
  36   18   43 1
  37   19   20 1
  38   20   21 ar
  39   20   25 ar
  40   21   22 ar
  41   21   44 1
  42   22   23 ar
  43   22   27 1
  44   23   24 ar
  45   23   26 1
  46   24   25 ar
  47   24   45 1
  48   25   28 1

#	End of record

