#	Name: ASD01816459
#	Creating user name:	WinNT
#	Creation time:	15. 06. 2019 19:35

#	Modifying user name:	WinNT
#	Modification time:	15. 06. 2019 19:35

#	Program:	/corina/corina34_cracker 3.40 0067  02.08.2006

@<TRIPOS>MOLECULE
ASD01816459
  53   58    0    0    0
SMALL
NO_CHARGES


@<TRIPOS>ATOM
   1 C1            -0.0167     1.3813     0.0096 C.ar    
   2 C2             0.0021    -0.0041     0.0020 C.ar    
   3 C3             1.1984    -0.6909    -0.0127 C.ar    
   4 C4             2.4015     0.0060    -0.0204 C.ar    
   5 C5             2.3790     1.4106    -0.0132 C.ar    
   6 C6             1.1663     2.0916     0.0022 C.ar    
   7 N7             3.6053    -0.6771    -0.0347 N.pl3   
   8 C8             4.7970    -0.0585    -0.0423 C.2     
   9 C9             4.9000     1.3103    -0.0368 C.2     
  10 C10            3.6670     2.1302    -0.0217 C.2     
  11 C11            5.9971     2.2730    -0.0424 C.2     
  12 N12            5.4245     3.4961    -0.0318 N.am    
  13 N13            4.0322     3.3799    -0.0195 N.2     
  14 C14            6.1241     4.7046    -0.0321 C.ar    
  15 O15            7.1912     2.0231    -0.0536 O.2     
  16 C16            3.5779    -2.1419    -0.0413 C.3     
  17 C17            3.5554    -2.6375    -1.4643 C.ar    
  18 C18            4.7433    -2.8867    -2.1270 C.ar    
  19 C19            4.7259    -3.3406    -3.4313 C.ar    
  20 C20            3.5142    -3.5469    -4.0770 C.ar    
  21 C21            2.3233    -3.2962    -3.4089 C.ar    
  22 C22            2.3470    -2.8474    -2.1029 C.ar    
  23 N23            3.4934    -4.0070    -5.4010 N.pl3   
  24 C24            2.3885    -4.2482    -6.1424 C.2     
  25 C25            2.7951    -4.6776    -7.3595 C.2     
  26 C26            4.1941    -4.7000    -7.3633 C.2     
  27 N27            4.6135    -4.2926    -6.1923 N.2     
  28 C28            7.0676     4.9838    -1.0186 C.ar    
  29 C29            7.7383     6.1910    -0.9832 C.ar    
  30 N30            7.4940     7.0726    -0.0310 N.ar    
  31 C31            6.6078     6.8440     0.9202 C.ar    
  32 C32            5.8924     5.6655     0.9519 C.ar    
  33 Cl33           8.9170     6.5531    -2.2051 Cl      
  34 C34            4.8825     5.4142     2.0419 C.3     
  35 F35            4.8443     6.5147     2.9049 F       
  36 F36            3.6190     5.2241     1.4722 F       
  37 F37            5.2469     4.2705     2.7605 F       
  38 H38           -0.9602     1.9068     0.0170 H       
  39 H39           -0.9289    -0.5516     0.0080 H       
  40 H40            1.2004    -1.7709    -0.0178 H       
  41 H41            1.1506     3.1715     0.0077 H       
  42 H42            5.6983    -0.6535    -0.0527 H       
  43 H43            4.4656    -2.5241     0.4626 H       
  44 H44            2.6860    -2.4909     0.4791 H       
  45 H45            5.6855    -2.7260    -1.6242 H       
  46 H46            5.6539    -3.5344    -3.9486 H       
  47 H47            1.3792    -3.4554    -3.9087 H       
  48 H48            1.4209    -2.6522    -1.5826 H       
  49 H49            1.3653    -4.1215    -5.8207 H       
  50 H50            2.1531    -4.9543    -8.1828 H       
  51 H51            4.8202    -4.9977    -8.1914 H       
  52 H52            7.2719     4.2665    -1.7997 H       
  53 H53            6.4376     7.5914     1.6810 H       
@<TRIPOS>BOND
   1    1    2 ar
   2    1    6 ar
   3    1   38 1
   4    2    3 ar
   5    2   39 1
   6    3    4 ar
   7    3   40 1
   8    4    5 ar
   9    4    7 1
  10    5    6 ar
  11    5   10 1
  12    6   41 1
  13    7    8 1
  14    7   16 1
  15    8    9 2
  16    8   42 1
  17    9   10 1
  18    9   11 1
  19   10   13 2
  20   11   12 am
  21   11   15 2
  22   12   13 1
  23   12   14 1
  24   14   28 ar
  25   14   32 ar
  26   16   17 1
  27   16   43 1
  28   16   44 1
  29   17   18 ar
  30   17   22 ar
  31   18   19 ar
  32   18   45 1
  33   19   20 ar
  34   19   46 1
  35   20   21 ar
  36   20   23 1
  37   21   22 ar
  38   21   47 1
  39   22   48 1
  40   23   24 1
  41   23   27 1
  42   24   25 2
  43   24   49 1
  44   25   26 1
  45   25   50 1
  46   26   27 2
  47   26   51 1
  48   28   29 ar
  49   28   52 1
  50   29   30 ar
  51   29   33 1
  52   30   31 ar
  53   31   32 ar
  54   31   53 1
  55   32   34 1
  56   34   35 1
  57   34   36 1
  58   34   37 1

#	End of record

