#	Name: ASD04590393
#	Creating user name:	WinNT
#	Creation time:	15. 06. 2019 20:50

#	Modifying user name:	WinNT
#	Modification time:	15. 06. 2019 20:50

#	Program:	/corina/corina34_cracker 3.40 0067  02.08.2006

@<TRIPOS>MOLECULE
ASD04590393
  39   42    0    0    0
SMALL
NO_CHARGES


@<TRIPOS>ATOM
   1 C1            -0.0168     1.3856     0.0097 C.ar    
   2 C2             0.0021    -0.0041     0.0020 C.ar    
   3 C3             2.4035     0.0245    -0.0203 C.ar    
   4 C4             2.3771     1.4299    -0.0129 C.ar    
   5 C5             1.1622     2.1003     0.0022 C.ar    
   6 N6             3.7056    -0.3521    -0.0352 N.2     
   7 C7             4.4721     0.7118    -0.0376 C.2     
   8 N8             3.6977     1.8404    -0.0241 N.pl3   
   9 C9             5.9495     0.6949    -0.0521 C.2     
  10 C10            6.7675    -0.4585    -0.0661 C.2     
  11 C11            8.0595    -0.0487    -0.0774 C.2     
  12 N12            8.0655     1.3103    -0.0708 N.pl3   
  13 N13            6.7368     1.7526    -0.0600 N.2     
  14 N14            6.3213    -1.7900    -0.0680 N.am    
  15 C15            7.2138    -2.7998    -0.0821 C.2     
  16 O16            8.4056    -2.5579    -0.0931 O.2     
  17 C17            6.7450    -4.1986    -0.0841 C.ar    
  18 C18            1.1988    -0.6866    -0.0126 C.ar    
  19 C19            6.0951    -6.1822     1.1131 C.ar    
  20 C20            5.8647    -6.8283    -0.0878 C.ar    
  21 C21            6.0759    -6.1723    -1.2870 C.ar    
  22 C22            6.5146    -4.8616    -1.2943 C.ar    
  23 F23            6.7199    -4.2225    -2.4667 F       
  24 C24            6.5339    -4.8715     1.1242 C.ar    
  25 F25            6.7587    -4.2423     2.2984 F       
  26 C26            1.2100    -2.1935    -0.0198 C.3     
  27 F27           -1.1615    -0.6906     0.0094 F       
  28 H28           -0.9613     1.9091     0.0170 H       
  29 H29            1.1403     3.1800     0.0079 H       
  30 H30            4.0157     2.7568    -0.0234 H       
  31 H31            8.9295    -0.6884    -0.0889 H       
  32 H32            8.8536     1.8759    -0.0759 H       
  33 H33            5.3707    -1.9829    -0.0592 H       
  34 H34            5.9276    -6.7018     2.0449 H       
  35 H35            5.5223    -7.8526    -0.0893 H       
  36 H36            5.8939    -6.6844    -2.2202 H       
  37 H37            1.2029    -2.5520    -1.0491 H       
  38 H38            2.1075    -2.5526     0.4838 H       
  39 H39            0.3277    -2.5659     0.5007 H       
@<TRIPOS>BOND
   1    1    2 ar
   2    1    5 ar
   3    1   28 1
   4    2   18 ar
   5    2   27 1
   6    3    4 ar
   7    3    6 1
   8    3   18 ar
   9    4    5 ar
  10    4    8 1
  11    5   29 1
  12    6    7 2
  13    7    8 1
  14    7    9 1
  15    8   30 1
  16    9   10 1
  17    9   13 2
  18   10   11 2
  19   10   14 1
  20   11   12 1
  21   11   31 1
  22   12   13 1
  23   12   32 1
  24   14   15 am
  25   14   33 1
  26   15   16 2
  27   15   17 1
  28   17   24 ar
  29   17   22 ar
  30   18   26 1
  31   19   20 ar
  32   19   24 ar
  33   19   34 1
  34   20   21 ar
  35   20   35 1
  36   21   22 ar
  37   21   36 1
  38   22   23 1
  39   24   25 1
  40   26   37 1
  41   26   38 1
  42   26   39 1

#	End of record

