#	Name: ASD03331726
#	Creating user name:	WinNT
#	Creation time:	15. 06. 2019 20:39

#	Modifying user name:	WinNT
#	Modification time:	15. 06. 2019 20:39

#	Program:	/corina/corina34_cracker 3.40 0067  02.08.2006

@<TRIPOS>MOLECULE
ASD03331726
  48   51    0    0    0
SMALL
NO_CHARGES


@<TRIPOS>ATOM
   1 C1            -0.0189     1.5418     0.0105 C.3     
   2 C2             0.0021    -0.0041     0.0020 C.3     
   3 C3             1.4670     1.9573    -0.0014 C.3     
   4 C4             2.2507     0.6247    -0.0160 C.3     
   5 N5             1.3173    -0.3550     0.6010 N.3     
   6 C6             1.2871    -0.2053     2.0620 C.3     
   7 C7             0.0314    -0.4658    -1.4638 C.3     
   8 C8             2.4435     0.2086    -1.4831 C.3     
   9 C9             1.1030     0.3311    -2.2133 C.3     
  10 O10            1.2359    -0.1823    -3.5402 O.3     
  11 C11            1.6357     0.7942    -4.5039 C.3     
  12 C12            3.1399     0.8310    -4.5875 C.ar    
  13 C13            1.0664     0.4325    -5.8515 C.ar    
  14 C14            5.2425    -0.3139    -4.6213 C.ar    
  15 C15            3.8631    -0.3464    -4.5447 C.ar    
  16 C16            3.7953     2.0418    -4.7126 C.ar    
  17 C17            5.1747     2.0768    -4.7898 C.ar    
  18 C18            5.9003     0.8985    -4.7418 C.ar    
  19 C19            0.9412    -0.8956    -6.2145 C.ar    
  20 C20            0.6644     1.4288    -6.7215 C.ar    
  21 C21            0.1414     1.0983    -7.9573 C.ar    
  22 C22            0.0204    -0.2314    -8.3240 C.ar    
  23 C23            0.4193    -1.2285    -7.4501 C.ar    
  24 F24            7.2488     0.9316    -4.8163 F       
  25 F25           -0.4907    -0.5557    -9.5318 F       
  26 H26           -0.5254     1.9192    -0.8778 H       
  27 H27           -0.5083     1.9096     0.9123 H       
  28 H28           -0.8380    -0.4307     0.5501 H       
  29 H29            1.6910     2.5389    -0.8957 H       
  30 H30            1.7081     2.5294     0.8945 H       
  31 H31            3.1932     0.6948     0.5271 H       
  32 H32            0.9562     0.8014     2.3174 H       
  33 H33            0.5968    -0.9335     2.4877 H       
  34 H34            2.2859    -0.3725     2.4651 H       
  35 H35            0.2697    -1.5285    -1.5071 H       
  36 H36           -0.9419    -0.2892    -1.9217 H       
  37 H37            3.1772     0.8624    -1.9546 H       
  38 H38            2.7903    -0.8238    -1.5272 H       
  39 H39            0.8094     1.3798    -2.2588 H       
  40 H40            1.2644     1.7741    -4.2038 H       
  41 H41            5.8073    -1.2338    -4.5871 H       
  42 H42            3.3498    -1.2920    -4.4510 H       
  43 H43            3.2291     2.9607    -4.7505 H       
  44 H44            5.6864     3.0228    -4.8880 H       
  45 H45            1.2518    -1.6732    -5.5324 H       
  46 H46            0.7589     2.4659    -6.4352 H       
  47 H47           -0.1732     1.8768    -8.6365 H       
  48 H48            0.3220    -2.2661    -7.7336 H       
@<TRIPOS>BOND
   1    1    2 1
   2    1    3 1
   3    1   26 1
   4    1   27 1
   5    2    7 1
   6    2    5 1
   7    2   28 1
   8    3    4 1
   9    3   29 1
  10    3   30 1
  11    4    5 1
  12    4    8 1
  13    4   31 1
  14    5    6 1
  15    6   32 1
  16    6   33 1
  17    6   34 1
  18    7    9 1
  19    7   35 1
  20    7   36 1
  21    8    9 1
  22    8   37 1
  23    8   38 1
  24    9   10 1
  25    9   39 1
  26   10   11 1
  27   11   12 1
  28   11   13 1
  29   11   40 1
  30   12   16 ar
  31   12   15 ar
  32   13   20 ar
  33   13   19 ar
  34   14   15 ar
  35   14   18 ar
  36   14   41 1
  37   15   42 1
  38   16   17 ar
  39   16   43 1
  40   17   18 ar
  41   17   44 1
  42   18   24 1
  43   19   23 ar
  44   19   45 1
  45   20   21 ar
  46   20   46 1
  47   21   22 ar
  48   21   47 1
  49   22   23 ar
  50   22   25 1
  51   23   48 1

#	End of record

