#	Name: ASD02500272
#	Creating user name:	WinNT
#	Creation time:	15. 06. 2019 20:22

#	Modifying user name:	WinNT
#	Modification time:	15. 06. 2019 20:22

#	Program:	/corina/corina34_cracker 3.40 0067  02.08.2006

@<TRIPOS>MOLECULE
ASD02500272
  63   67    0    0    0
SMALL
NO_CHARGES


@<TRIPOS>ATOM
   1 N1            -3.0354     5.5477    -0.6516 N.ar    
   2 C2            -4.1328     6.1686    -1.0101 C.ar    
   3 C3            -5.3188     6.0356    -0.2909 C.ar    
   4 C4            -5.3573     5.2411     0.8193 C.ar    
   5 C5            -4.1770     4.5755     1.2010 C.ar    
   6 C6            -4.1398     3.7427     2.3305 C.ar    
   7 C7            -2.9783     3.1166     2.6671 C.ar    
   8 C8            -1.8251     3.2919     1.9053 C.ar    
   9 C9            -1.8255     4.0920     0.8043 C.ar    
  10 C10           -3.0052     4.7553     0.4246 C.ar    
  11 S11           -0.3526     4.2964    -0.1409 S.o2    
  12 O12           -0.1244     5.6961    -0.2306 O.2     
  13 O13            0.5980     3.3868     0.3957 O.2     
  14 N14           -0.6809     3.7767    -1.6786 N.am    
  15 C15           -0.9410     2.4293    -1.9178 C.ar    
  16 C16           -0.5039     1.8347    -3.1033 C.ar    
  17 C17           -0.7612     0.5000    -3.3409 C.ar    
  18 C18           -1.4597    -0.2543    -2.3928 C.ar    
  19 C19           -1.8945     0.3461    -1.2085 C.ar    
  20 C20           -1.6302     1.6774    -0.9734 C.ar    
  21 O21            0.1749     2.5711    -4.0237 O.3     
  22 C22            0.5918     1.8981    -5.2133 C.3     
  23 C23           -1.7374    -1.6814    -2.6429 C.2     
  24 O24           -2.1304    -2.0419    -3.7357 O.2     
  25 N25           -1.5554    -2.5857    -1.6602 N.am    
  26 C26           -1.6900    -4.0236    -1.9325 C.3     
  27 C27           -0.3980    -4.7274    -1.4994 C.3     
  28 N28           -0.0610    -4.2932    -0.1364 N.am    
  29 C29            0.0737    -2.8553     0.1359 C.3     
  30 C30           -1.2128    -2.1517    -0.2985 C.3     
  31 C31            0.6644    -4.7688     2.1558 C.ar    
  32 C32            0.6949    -5.6691     3.2189 C.ar    
  33 C33            1.2111    -5.2561     4.4362 C.ar    
  34 C34            1.6800    -3.9549     4.5489 C.ar    
  35 C35            1.6184    -3.1128     3.4482 C.ar    
  36 N36            1.1229    -3.5321     2.3047 N.ar    
  37 C37            0.1210    -5.1975     0.8463 C.2     
  38 O38           -0.1607    -6.3645     0.6580 O.2     
  39 Cl39           2.3364    -3.3865     6.0521 Cl      
  40 H40           -4.1172     6.8003    -1.8859 H       
  41 H41           -6.2067     6.5606    -0.6109 H       
  42 H42           -6.2679     5.1268     1.3887 H       
  43 H43           -5.0272     3.5996     2.9293 H       
  44 H44           -2.9507     2.4761     3.5362 H       
  45 H45           -0.9160     2.7849     2.1933 H       
  46 H46           -0.6920     4.4106    -2.4128 H       
  47 H47           -0.4241     0.0388    -4.2575 H       
  48 H48           -2.4344    -0.2348    -0.4754 H       
  49 H49           -1.9631     2.1390    -0.0556 H       
  50 H50            1.1206     2.5980    -5.8604 H       
  51 H51            1.2550     1.0737    -4.9510 H       
  52 H52           -0.2820     1.5092    -5.7361 H       
  53 H53           -2.5321    -4.4253    -1.3690 H       
  54 H54           -1.8522    -4.1803    -2.9989 H       
  55 H55           -0.5474    -5.8071    -1.5129 H       
  56 H56            0.4105    -4.4590    -2.1793 H       
  57 H57            0.2358    -2.6986     1.2023 H       
  58 H58            0.9158    -2.4535    -0.4276 H       
  59 H59           -1.0598    -1.0726    -0.2861 H       
  60 H60           -2.0201    -2.4171     0.3840 H       
  61 H61            0.3209    -6.6748     3.0956 H       
  62 H62            1.2476    -5.9313     5.2783 H       
  63 H63            1.9818    -2.0993     3.5318 H       
@<TRIPOS>BOND
   1    1    2 ar
   2    1   10 ar
   3    2    3 ar
   4    2   40 1
   5    3    4 ar
   6    3   41 1
   7    4    5 ar
   8    4   42 1
   9    5    6 ar
  10    5   10 ar
  11    6    7 ar
  12    6   43 1
  13    7    8 ar
  14    7   44 1
  15    8    9 ar
  16    8   45 1
  17    9   10 ar
  18    9   11 1
  19   11   12 2
  20   11   13 2
  21   11   14 am
  22   14   15 1
  23   14   46 1
  24   15   16 ar
  25   15   20 ar
  26   16   17 ar
  27   16   21 1
  28   17   18 ar
  29   17   47 1
  30   18   19 ar
  31   18   23 1
  32   19   20 ar
  33   19   48 1
  34   20   49 1
  35   21   22 1
  36   22   50 1
  37   22   51 1
  38   22   52 1
  39   23   24 2
  40   23   25 am
  41   25   26 1
  42   25   30 1
  43   26   27 1
  44   26   53 1
  45   26   54 1
  46   27   28 1
  47   27   55 1
  48   27   56 1
  49   28   29 1
  50   28   37 am
  51   29   30 1
  52   29   57 1
  53   29   58 1
  54   30   59 1
  55   30   60 1
  56   31   32 ar
  57   31   36 ar
  58   31   37 1
  59   32   33 ar
  60   32   61 1
  61   33   34 ar
  62   33   62 1
  63   34   35 ar
  64   34   39 1
  65   35   36 ar
  66   35   63 1
  67   37   38 2

#	End of record

