#	Name: ASD01478102
#	Creating user name:	WinNT
#	Creation time:	15. 06. 2019 19:21

#	Modifying user name:	WinNT
#	Modification time:	15. 06. 2019 19:21

#	Program:	/corina/corina34_cracker 3.40 0067  02.08.2006

@<TRIPOS>MOLECULE
ASD01478102
  53   55    0    0    0
SMALL
NO_CHARGES


@<TRIPOS>ATOM
   1 C1             0.7384    -0.4401    -1.3527 C.3     
   2 C2             0.8898    -1.6684    -0.4383 C.3     
   3 C3             2.3026    -1.5888     0.1763 C.3     
   4 C4             2.6659    -0.0850     0.0997 C.3     
   5 C5             2.0644     0.3431    -1.2619 C.3     
   6 O6            -0.3441     0.3760    -0.9008 O.3     
   7 O7            -0.0963    -1.6338     0.5953 O.3     
   8 O8             4.0836     0.0944     0.1059 O.3     
   9 Si9            4.5778     1.4462     0.8730 Si      
  10 C10            6.3863     1.7419     0.5106 C.ar    
  11 C11            6.7915     2.9359    -0.0559 C.ar    
  12 C12            8.1298     3.1547    -0.3241 C.ar    
  13 C13            9.0630     2.1796    -0.0253 C.ar    
  14 C14            8.6579     0.9859     0.5421 C.ar    
  15 C15            7.3201     0.7689     0.8142 C.ar    
  16 C16            3.5761     2.9042     0.2728 C.ar    
  17 C17            3.9350     3.5571    -0.8916 C.ar    
  18 C18            3.1937     4.6361    -1.3357 C.ar    
  19 C19            2.0932     5.0619    -0.6157 C.ar    
  20 C20            1.7337     4.4085     0.5482 C.ar    
  21 C21            2.4725     3.3268     0.9900 C.ar    
  22 C22            4.3377     1.2415     2.7091 C.3     
  23 C23            5.3605     0.2396     3.2485 C.3     
  24 C24            4.5315     2.5915     3.4024 C.3     
  25 C25            2.9240     0.7252     2.9841 C.3     
  26 H26            0.5626    -0.7589    -2.3801 H       
  27 H27            0.7876    -2.5833    -1.0220 H       
  28 H28            2.2871    -1.9252     1.2129 H       
  29 H29            3.0066    -2.1815    -0.4078 H       
  30 H30            2.2020     0.4665     0.9175 H       
  31 H31            2.7299     0.0623    -2.0781 H       
  32 H32            1.8751     1.4164    -1.2747 H       
  33 H33           -1.2032    -0.0676    -0.9138 H       
  34 H34           -1.0070    -1.6593     0.2711 H       
  35 H35            6.0624     3.6977    -0.2894 H       
  36 H36            8.4463     4.0873    -0.7674 H       
  37 H37           10.1085     2.3502    -0.2355 H       
  38 H38            9.3869     0.2240     0.7752 H       
  39 H39            7.0040    -0.1622     1.2609 H       
  40 H40            4.7948     3.2244    -1.4541 H       
  41 H41            3.4746     5.1466    -2.2450 H       
  42 H42            1.5145     5.9053    -0.9623 H       
  43 H43            0.8741     4.7414     1.1110 H       
  44 H44            2.1894     2.8140     1.8974 H       
  45 H45            6.3675     0.5951     3.0302 H       
  46 H46            5.2366     0.1388     4.3268 H       
  47 H47            5.2061    -0.7290     2.7730 H       
  48 H48            3.7349     3.2720     3.1018 H       
  49 H49            4.5021     2.4524     4.4831 H       
  50 H50            5.4957     3.0118     3.1163 H       
  51 H51            2.8120    -0.2719     2.5582 H       
  52 H52            2.7560     0.6816     4.0602 H       
  53 H53            2.1966     1.3980     2.5298 H       
@<TRIPOS>BOND
   1    1    2 1
   2    1    5 1
   3    1    6 1
   4    1   26 1
   5    2    3 1
   6    2    7 1
   7    2   27 1
   8    3    4 1
   9    3   28 1
  10    3   29 1
  11    4    5 1
  12    4    8 1
  13    4   30 1
  14    5   31 1
  15    5   32 1
  16    6   33 1
  17    7   34 1
  18    8    9 1
  19    9   10 1
  20    9   16 1
  21    9   22 1
  22   10   11 ar
  23   10   15 ar
  24   11   12 ar
  25   11   35 1
  26   12   13 ar
  27   12   36 1
  28   13   14 ar
  29   13   37 1
  30   14   15 ar
  31   14   38 1
  32   15   39 1
  33   16   17 ar
  34   16   21 ar
  35   17   18 ar
  36   17   40 1
  37   18   19 ar
  38   18   41 1
  39   19   20 ar
  40   19   42 1
  41   20   21 ar
  42   20   43 1
  43   21   44 1
  44   22   23 1
  45   22   25 1
  46   22   24 1
  47   23   45 1
  48   23   46 1
  49   23   47 1
  50   24   48 1
  51   24   49 1
  52   24   50 1
  53   25   51 1
  54   25   52 1
  55   25   53 1

#	End of record

