#	Name: ASD02560053
#	Creating user name:	WinNT
#	Creation time:	15. 06. 2019 20:24

#	Modifying user name:	WinNT
#	Modification time:	15. 06. 2019 20:24

#	Program:	/corina/corina34_cracker 3.40 0067  02.08.2006

@<TRIPOS>MOLECULE
ASD02560053
  35   36    0    0    0
SMALL
NO_CHARGES


@<TRIPOS>ATOM
   1 C1             0.0308     1.0773    -0.6359 C.ar    
   2 C2             0.1306    -0.3013    -0.5954 C.ar    
   3 C3             1.3634    -0.9043    -0.4284 C.ar    
   4 C4             2.5027    -0.1320    -0.3011 C.ar    
   5 C5             2.4103     1.2516    -0.3413 C.ar    
   6 C6             1.1676     1.8584    -0.5095 C.ar    
   7 N7             6.1420     0.3196     1.7926 N.am    
   8 C8             5.0135     0.9396     1.3947 C.2     
   9 C9             4.8681     1.3958    -0.0343 C.3     
  10 N10            3.5624     2.0359    -0.2121 N.pl3   
  11 O11            4.1149     1.1304     2.1865 O.2     
  12 Cl12           7.0339     0.4212    -1.8864 Cl      
  13 C13            6.9933     2.0168    -1.2038 C.ar    
  14 C14            5.9597     2.3823    -0.3602 C.ar    
  15 C15            7.9978     2.9214    -1.4988 C.ar    
  16 C16            7.9661     4.1916    -0.9546 C.ar    
  17 C17            6.9306     4.5592    -0.1162 C.ar    
  18 C18            5.9283     3.6538     0.1838 C.ar    
  19 O19            1.0710     3.2145    -0.5501 O.3     
  20 C20           -0.2353     3.7668    -0.7251 C.3     
  21 Cl21           4.6278     4.1156     1.2369 Cl      
  22 H22           -0.9333     1.5451    -0.7706 H       
  23 H23           -0.7570    -0.9086    -0.6941 H       
  24 H24            1.4365    -1.9813    -0.3970 H       
  25 H25            3.4645    -0.6056    -0.1701 H       
  26 H26            6.8607     0.1670     1.1593 H       
  27 H27            6.2356     0.0260     2.7124 H       
  28 H28            4.9449     0.5359    -0.6998 H       
  29 H29            3.4963     3.0032    -0.2404 H       
  30 H30            8.8070     2.6349    -2.1542 H       
  31 H31            8.7508     4.8971    -1.1847 H       
  32 H32            6.9063     5.5518     0.3087 H       
  33 H33           -0.1707     4.8548    -0.7398 H       
  34 H34           -0.6553     3.4150    -1.6674 H       
  35 H35           -0.8762     3.4521     0.0984 H       
@<TRIPOS>BOND
   1    1    2 ar
   2    1    6 ar
   3    1   22 1
   4    2    3 ar
   5    2   23 1
   6    3    4 ar
   7    3   24 1
   8    4    5 ar
   9    4   25 1
  10    5    6 ar
  11    5   10 1
  12    6   19 1
  13    7    8 am
  14    7   26 1
  15    7   27 1
  16    8    9 1
  17    8   11 2
  18    9   10 1
  19    9   14 1
  20    9   28 1
  21   10   29 1
  22   12   13 1
  23   13   14 ar
  24   13   15 ar
  25   14   18 ar
  26   15   16 ar
  27   15   30 1
  28   16   17 ar
  29   16   31 1
  30   17   18 ar
  31   17   32 1
  32   18   21 1
  33   19   20 1
  34   20   33 1
  35   20   34 1
  36   20   35 1

#	End of record

