#	Name: ASD02198779
#	Creating user name:	WinNT
#	Creation time:	15. 06. 2019 20:20

#	Modifying user name:	WinNT
#	Modification time:	15. 06. 2019 20:20

#	Program:	/corina/corina34_cracker 3.40 0067  02.08.2006

@<TRIPOS>MOLECULE
ASD02198779
  56   61    0    0    0
SMALL
NO_CHARGES


@<TRIPOS>ATOM
   1 F1             2.8097    -1.1573     2.9997 F       
   2 C2             0.2375     1.5466     0.1081 C.2     
   3 C3             0.2831     0.2522     0.5122 C.2     
   4 N4             1.4667    -0.3706     0.7109 N.pl3   
   5 N5             2.6008     0.2007     0.5363 N.2     
   6 C6             2.6998     1.4532     0.1454 C.2     
   7 C7             1.4664     2.2185    -0.0976 C.2     
   8 C8             1.4527    -1.7057     1.1285 C.ar    
   9 C9             2.1338    -2.0814     2.2824 C.ar    
  10 C10            2.1187    -3.4008     2.6938 C.ar    
  11 C11            1.4242    -4.3498     1.9557 C.ar    
  12 C12            0.7445    -3.9740     0.8038 C.ar    
  13 C13            0.7542    -2.6563     0.3945 C.ar    
  14 C14            4.0237     2.0795    -0.0452 C.2     
  15 N15            4.4793     2.6853    -1.1824 N.pl3   
  16 N16            5.7793     3.1416    -0.9312 N.2     
  17 C17            6.1042     2.8312     0.2985 C.2     
  18 C18            5.0297     2.1685     0.8918 C.2     
  19 C19            3.7728     2.8247    -2.3838 C.ar    
  20 C20            3.8076     4.0281    -3.0759 C.ar    
  21 C21            3.1098     4.1624    -4.2601 C.ar    
  22 C22            2.3770     3.1000    -4.7569 C.ar    
  23 C23            2.3400     1.9005    -4.0698 C.ar    
  24 C24            3.0406     1.7579    -2.8882 C.ar    
  25 O25            1.5016     3.3843    -0.4621 O.2     
  26 N26            1.4092    -5.6879     2.3727 N.pl3   
  27 N27            1.4589    -6.8127     1.5393 N.2     
  28 C28            1.4250    -7.8842     2.2898 C.2     
  29 C29            1.3525    -7.4849     3.6280 C.2     
  30 C30            1.3498    -6.1257     3.6586 C.2     
  31 O31            1.2893    -5.3478     4.7695 O.3     
  32 C32            1.3356    -6.0153     6.0322 C.3     
  33 C33            1.1388    -4.9955     7.1557 C.3     
  34 C34            1.0390    -5.5303     8.5857 C.3     
  35 C35            2.2979    -4.7881     8.1326 C.3     
  36 H36           -0.7056     2.0467    -0.0557 H       
  37 H37           -0.6377    -0.2874     0.6776 H       
  38 H38            2.6472    -3.6936     3.5890 H       
  39 H39            0.2046    -4.7131     0.2305 H       
  40 H40            0.2252    -2.3653    -0.5009 H       
  41 H41            7.0470     3.0542     0.7756 H       
  42 H42            4.9951     1.7878     1.9019 H       
  43 H43            4.3795     4.8582    -2.6883 H       
  44 H44            3.1362     5.0981    -4.7987 H       
  45 H45            1.8322     3.2075    -5.6832 H       
  46 H46            1.7662     1.0729    -4.4599 H       
  47 H47            3.0113     0.8209    -2.3520 H       
  48 H48            1.4489    -8.9042     1.9356 H       
  49 H49            1.3108    -8.1401     4.4855 H       
  50 H50            0.5437    -6.7629     6.0772 H       
  51 H51            2.3031    -6.5033     6.1499 H       
  52 H52            0.5336    -4.1256     6.9003 H       
  53 H53            0.3685    -5.0120     9.2712 H       
  54 H54            1.1136    -6.6087     8.7261 H       
  55 H55            3.2007    -5.3782     7.9749 H       
  56 H56            2.4556    -3.7816     8.5200 H       
@<TRIPOS>BOND
   1    1    9 1
   2    2    3 2
   3    2    7 1
   4    2   36 1
   5    3    4 1
   6    3   37 1
   7    4    5 1
   8    4    8 1
   9    5    6 2
  10    6    7 1
  11    6   14 1
  12    7   25 2
  13    8    9 ar
  14    8   13 ar
  15    9   10 ar
  16   10   11 ar
  17   10   38 1
  18   11   12 ar
  19   11   26 1
  20   12   13 ar
  21   12   39 1
  22   13   40 1
  23   14   15 1
  24   14   18 2
  25   15   16 1
  26   15   19 1
  27   16   17 2
  28   17   18 1
  29   17   41 1
  30   18   42 1
  31   19   20 ar
  32   19   24 ar
  33   20   21 ar
  34   20   43 1
  35   21   22 ar
  36   21   44 1
  37   22   23 ar
  38   22   45 1
  39   23   24 ar
  40   23   46 1
  41   24   47 1
  42   26   27 1
  43   26   30 1
  44   27   28 2
  45   28   29 1
  46   28   48 1
  47   29   30 2
  48   29   49 1
  49   30   31 1
  50   31   32 1
  51   32   33 1
  52   32   50 1
  53   32   51 1
  54   33   34 1
  55   33   35 1
  56   33   52 1
  57   34   35 1
  58   34   53 1
  59   34   54 1
  60   35   55 1
  61   35   56 1

#	End of record

