#	Name: ASD01411127
#	Creating user name:	WinNT
#	Creation time:	15. 06. 2019 19:19

#	Modifying user name:	WinNT
#	Modification time:	15. 06. 2019 19:19

#	Program:	/corina/corina34_cracker 3.40 0067  02.08.2006

@<TRIPOS>MOLECULE
ASD01411127
  63   65    0    0    0
SMALL
NO_CHARGES


@<TRIPOS>ATOM
   1 C1            -0.2558     1.1163    -0.0441 C.2     
   2 C2             0.9529     1.6781    -0.3774 C.2     
   3 C3             2.0035     0.8069    -0.3906 C.2     
   4 S4             1.4496    -0.8055     0.0376 S.3     
   5 C5            -0.2025    -0.2324     0.2205 C.2     
   6 C6             3.3561     1.1546    -0.7072 C.1     
   7 C7             4.4650     1.4397    -0.9667 C.1     
   8 C8             5.8554     1.7971    -1.2921 C.3     
   9 C9             6.7377     0.5506    -1.1983 C.3     
  10 C10            5.9179     2.3604    -2.7133 C.3     
  11 C11            6.3557     2.8517    -0.3030 C.3     
  12 C12           -1.3077    -1.0355     0.5845 C.2     
  13 O13           -2.3912    -0.5214     0.7931 O.2     
  14 O14           -1.1614    -2.3725     0.7007 O.3     
  15 N15           -1.4385     1.8540     0.0259 N.am    
  16 C16           -1.8781     2.3112     1.2151 C.2     
  17 C17           -3.1132     3.1721     1.2815 C.3     
  18 O18           -1.2796     2.0299     2.2318 O.2     
  19 C19           -4.1104     5.3639     0.6154 C.3     
  20 C20           -2.8564     4.4900     0.5480 C.3     
  21 C21           -3.4555     3.4610     2.7445 C.3     
  22 C22           -4.7095     4.3349     2.8119 C.3     
  23 C23           -4.4527     5.6528     2.0783 C.3     
  24 C24           -5.7067     6.5268     2.1457 C.3     
  25 C25           -2.2021     2.1313    -1.1932 C.3     
  26 C26           -0.7873     1.6881    -3.0782 C.3     
  27 N27           -1.7837     0.6201    -2.9354 N.am    
  28 C28           -2.5881     0.8405    -1.8813 C.2     
  29 C29           -1.3193     2.8643    -2.2297 C.3     
  30 O30           -3.4914     0.1104    -1.5322 O.2     
  31 C31           -1.8879    -0.5377    -3.8269 C.3     
  32 H32            1.0630     2.7268    -0.6109 H       
  33 H33            6.3812    -0.2007    -1.9030 H       
  34 H34            7.7672     0.8153    -1.4393 H       
  35 H35            6.6931     0.1493    -0.1859 H       
  36 H36            5.2893     3.2484    -2.7801 H       
  37 H37            6.9475     2.6250    -2.9543 H       
  38 H38            5.5614     1.6090    -3.4179 H       
  39 H39            6.3112     2.4504     0.7094 H       
  40 H40            7.3853     3.1164    -0.5440 H       
  41 H41            5.7271     3.7397    -0.3699 H       
  42 H42           -1.9714    -2.8364     0.9533 H       
  43 H43           -3.9457     2.6500     0.8098 H       
  44 H44           -3.9275     6.3028     0.0928 H       
  45 H45           -4.9429     4.8418     0.1437 H       
  46 H46           -2.0239     5.0121     1.0196 H       
  47 H47           -2.6126     4.2842    -0.4943 H       
  48 H48           -3.6385     2.5221     3.2670 H       
  49 H49           -2.6230     3.9830     3.2161 H       
  50 H50           -5.5420     3.8128     2.3402 H       
  51 H51           -4.9534     4.5407     3.8541 H       
  52 H52           -3.6202     6.1749     2.5500 H       
  53 H53           -6.5392     6.0047     1.6741 H       
  54 H54           -5.9506     6.7326     3.1880 H       
  55 H55           -5.5238     7.4657     1.6232 H       
  56 H56           -3.0883     2.7220    -0.9611 H       
  57 H57            0.1789     1.3558    -2.6985 H       
  58 H58           -0.7005     1.9858    -4.1232 H       
  59 H59           -1.9151     3.5455    -2.8373 H       
  60 H60           -0.5016     3.3938    -1.7408 H       
  61 H61           -1.2668    -1.3478    -3.4446 H       
  62 H62           -2.9259    -0.8672    -3.8748 H       
  63 H63           -1.5487    -0.2597    -4.8248 H       
@<TRIPOS>BOND
   1    1    2 1
   2    1    5 2
   3    1   15 1
   4    2    3 2
   5    2   32 1
   6    3    4 1
   7    3    6 1
   8    4    5 1
   9    5   12 1
  10    6    7 3
  11    7    8 1
  12    8    9 1
  13    8   10 1
  14    8   11 1
  15    9   33 1
  16    9   34 1
  17    9   35 1
  18   10   36 1
  19   10   37 1
  20   10   38 1
  21   11   39 1
  22   11   40 1
  23   11   41 1
  24   12   13 2
  25   12   14 1
  26   14   42 1
  27   15   16 am
  28   15   25 1
  29   16   18 2
  30   16   17 1
  31   17   21 1
  32   17   20 1
  33   17   43 1
  34   19   20 1
  35   19   23 1
  36   19   44 1
  37   19   45 1
  38   20   46 1
  39   20   47 1
  40   21   22 1
  41   21   48 1
  42   21   49 1
  43   22   23 1
  44   22   50 1
  45   22   51 1
  46   23   24 1
  47   23   52 1
  48   24   53 1
  49   24   54 1
  50   24   55 1
  51   25   29 1
  52   25   28 1
  53   25   56 1
  54   26   27 1
  55   26   29 1
  56   26   57 1
  57   26   58 1
  58   27   28 am
  59   27   31 1
  60   28   30 2
  61   29   59 1
  62   29   60 1
  63   31   61 1
  64   31   62 1
  65   31   63 1

#	End of record

