#	Name: ASD03930201
#	Creating user name:	WinNT
#	Creation time:	15. 06. 2019 20:47

#	Modifying user name:	WinNT
#	Modification time:	15. 06. 2019 20:47

#	Program:	/corina/corina34_cracker 3.40 0067  02.08.2006

@<TRIPOS>MOLECULE
ASD03930201
  41   44    0    0    0
SMALL
NO_CHARGES


@<TRIPOS>ATOM
   1 S1            -0.0754     4.0331    -1.0005 S.o2    
   2 N2            -0.7566     2.5501    -1.3392 N.am    
   3 C3            -0.4947     1.9212    -2.6300 C.3     
   4 C4             0.9732     1.5818    -2.8398 C.3     
   5 O5             1.7794     2.7654    -2.8768 O.3     
   6 C6             2.3641     3.1174    -1.7037 C.ar    
   7 C7             1.6342     3.6842    -0.6680 C.ar    
   8 C8             3.7232     2.8923    -1.5142 C.ar    
   9 C9             4.3091     3.1908    -0.3002 C.ar    
  10 C10            3.5558     3.7164     0.7391 C.ar    
  11 C11            2.2007     3.9687     0.5464 C.ar    
  12 O12            4.1374     3.9832     1.9388 O.3     
  13 C13            3.3382     4.3948     2.9578 C.ar    
  14 C14            2.7475     3.4622     3.7946 C.ar    
  15 C15            1.9281     3.8892     4.8390 C.ar    
  16 C16            1.7085     5.2539     5.0343 C.ar    
  17 C17            2.3016     6.1746     4.1951 C.ar    
  18 C18            3.1185     5.7503     3.1633 C.ar    
  19 O19            0.4834     3.1702     6.7791 O.3     
  20 C20            1.2936     2.8998     5.7362 C.2     
  21 N21            1.4138     1.5950     5.6650 N.2     
  22 N22            0.7227     1.0534     6.6055 N.2     
  23 C23            0.1390     1.9836     7.3083 C.2     
  24 C24           -0.7588     1.7676     8.4993 C.3     
  25 O25           -0.1134     4.7862    -2.2048 O.2     
  26 O26           -0.6482     4.4776     0.2217 O.2     
  27 H27           -1.3211     2.1093    -0.6850 H       
  28 H28           -1.0800     1.0042    -2.6986 H       
  29 H29           -0.8147     2.5987    -3.4217 H       
  30 H30            1.3124     0.9440    -2.0236 H       
  31 H31            1.0844     1.0443    -3.7816 H       
  32 H32            4.3202     2.4838    -2.3162 H       
  33 H33            5.3650     3.0136    -0.1584 H       
  34 H34            1.6032     4.3842     1.3444 H       
  35 H35            2.9208     2.4077     3.6384 H       
  36 H36            1.0743     5.5889     5.8418 H       
  37 H37            2.1309     7.2301     4.3473 H       
  38 H38            3.5837     6.4756     2.5122 H       
  39 H39           -1.7917     1.6746     8.1635 H       
  40 H40           -0.4618     0.8559     9.0175 H       
  41 H41           -0.6724     2.6160     9.1781 H       
@<TRIPOS>BOND
   1    1    2 am
   2    1    7 1
   3    1   25 2
   4    1   26 2
   5    2    3 1
   6    2   27 1
   7    3    4 1
   8    3   28 1
   9    3   29 1
  10    4    5 1
  11    4   30 1
  12    4   31 1
  13    5    6 1
  14    6    7 ar
  15    6    8 ar
  16    7   11 ar
  17    8    9 ar
  18    8   32 1
  19    9   10 ar
  20    9   33 1
  21   10   11 ar
  22   10   12 1
  23   11   34 1
  24   12   13 1
  25   13   14 ar
  26   13   18 ar
  27   14   15 ar
  28   14   35 1
  29   15   16 ar
  30   15   20 1
  31   16   17 ar
  32   16   36 1
  33   17   18 ar
  34   17   37 1
  35   18   38 1
  36   19   20 1
  37   19   23 1
  38   20   21 2
  39   21   22 1
  40   22   23 2
  41   23   24 1
  42   24   39 1
  43   24   40 1
  44   24   41 1

#	End of record

