#	Name: ASD01916642
#	Creating user name:	WinNT
#	Creation time:	15. 06. 2019 20:07

#	Modifying user name:	WinNT
#	Modification time:	15. 06. 2019 20:07

#	Program:	/corina/corina34_cracker 3.40 0067  02.08.2006

@<TRIPOS>MOLECULE
ASD01916642
  24   24    0    0    0
SMALL
NO_CHARGES


@<TRIPOS>ATOM
   1 C1            -0.0465     1.4850     0.2239 C.2     
   2 C2            -0.0457    -0.0219     0.2059 C.3     
   3 C3             1.3743    -0.5341     0.4556 C.3     
   4 C4             1.3751    -2.0060     0.4380 C.1     
   5 C5             1.3758    -3.1799     0.4239 C.1     
   6 O6             0.9869     2.0898     0.4175 O.2     
   7 N7            -1.1946     2.1607     0.0195 N.am    
   8 C8            -1.2153     3.5563     0.1328 C.ar    
   9 C9            -0.1180     4.3032    -0.2744 C.ar    
  10 C10           -0.1404     5.6796    -0.1617 C.ar    
  11 C11           -1.2563     6.3146     0.3570 C.ar    
  12 C12           -2.3517     5.5715     0.7637 C.ar    
  13 C13           -2.3355     4.1954     0.6474 C.ar    
  14 F14           -1.2761     7.6610     0.4669 F       
  15 H15           -0.7090    -0.3950     0.9862 H       
  16 H16           -0.3933    -0.3738    -0.7654 H       
  17 H17            2.0376    -0.1610    -0.3247 H       
  18 H18            1.7219    -0.1822     1.4269 H       
  19 H19            1.3764    -4.2298     0.4113 H       
  20 H20           -2.0065     1.6803    -0.2062 H       
  21 H21            0.7526     3.8083    -0.6787 H       
  22 H22            0.7130     6.2609    -0.4780 H       
  23 H23           -3.2209     6.0687     1.1684 H       
  24 H24           -3.1917     3.6165     0.9606 H       
@<TRIPOS>BOND
   1    1    2 1
   2    1    6 2
   3    1    7 am
   4    2    3 1
   5    2   15 1
   6    2   16 1
   7    3    4 1
   8    3   17 1
   9    3   18 1
  10    4    5 3
  11    5   19 1
  12    7    8 1
  13    7   20 1
  14    8    9 ar
  15    8   13 ar
  16    9   10 ar
  17    9   21 1
  18   10   11 ar
  19   10   22 1
  20   11   12 ar
  21   11   14 1
  22   12   13 ar
  23   12   23 1
  24   13   24 1

#	End of record

