#	Name: ASD01810576
#	Creating user name:	WinNT
#	Creation time:	15. 06. 2019 19:24

#	Modifying user name:	WinNT
#	Modification time:	15. 06. 2019 19:24

#	Program:	/corina/corina34_cracker 3.40 0067  02.08.2006

@<TRIPOS>MOLECULE
ASD01810576
  44   48    0    0    0
SMALL
NO_CHARGES


@<TRIPOS>ATOM
   1 C1            -0.0167     1.3812     0.0096 C.ar    
   2 C2             0.0021    -0.0041     0.0020 C.ar    
   3 C3             1.1984    -0.6908    -0.0131 C.ar    
   4 C4             2.4015     0.0061    -0.0204 C.ar    
   5 C5             2.3789     1.4106    -0.0127 C.ar    
   6 C6             1.1664     2.0916     0.0022 C.ar    
   7 N7             3.6054    -0.6770    -0.0347 N.pl3   
   8 C8             4.7971    -0.0584    -0.0423 C.2     
   9 C9             4.9001     1.3105    -0.0364 C.2     
  10 C10            3.6673     2.1304    -0.0207 C.2     
  11 C11            5.9972     2.2731    -0.0422 C.2     
  12 N12            5.4244     3.4961    -0.0313 N.am    
  13 N13            4.0322     3.3795    -0.0185 N.2     
  14 C14            6.1581     4.7641    -0.0316 C.3     
  15 C15            6.3973     5.2057    -1.4525 C.ar    
  16 C16            5.4687     6.0083    -2.0902 C.ar    
  17 C17            5.6831     6.4160    -3.3914 C.ar    
  18 C18            6.8371     6.0177    -4.0622 C.ar    
  19 C19            7.7691     5.2094    -3.4153 C.ar    
  20 C20            7.5474     4.8117    -2.1122 C.ar    
  21 C21            7.0728     6.4528    -5.4621 C.2     
  22 C22            6.2215     7.2659    -6.2355 C.2     
  23 N23            6.7707     7.4266    -7.4103 N.2     
  24 N24            7.9841     6.7284    -7.4334 N.pl3   
  25 C25            8.1562     6.1427    -6.2313 C.2     
  26 O26            7.1917     2.0232    -0.0541 O.2     
  27 C27            8.9096     6.6520    -8.5664 C.3     
  28 H28           -0.9602     1.9068     0.0170 H       
  29 H29           -0.9288    -0.5516     0.0083 H       
  30 H30            1.2005    -1.7708    -0.0189 H       
  31 H31            1.1508     3.1714     0.0084 H       
  32 H32            3.5873    -1.6468    -0.0391 H       
  33 H33            5.6984    -0.6535    -0.0530 H       
  34 H34            5.5743     5.5219     0.4910 H       
  35 H35            7.1149     4.6304     0.4732 H       
  36 H36            4.5742     6.3163    -1.5693 H       
  37 H37            4.9573     7.0424    -3.8886 H       
  38 H38            8.6654     4.8979    -3.9309 H       
  39 H39            8.2693     4.1851    -1.6097 H       
  40 H40            5.2789     7.6834    -5.9137 H       
  41 H41            8.9962     5.5327    -5.9334 H       
  42 H42            9.6275     7.4699    -8.5049 H       
  43 H43            9.4400     5.7002    -8.5388 H       
  44 H44            8.3500     6.7292    -9.4986 H       
@<TRIPOS>BOND
   1    1    2 ar
   2    1    6 ar
   3    1   28 1
   4    2    3 ar
   5    2   29 1
   6    3    4 ar
   7    3   30 1
   8    4    5 ar
   9    4    7 1
  10    5    6 ar
  11    5   10 1
  12    6   31 1
  13    7    8 1
  14    7   32 1
  15    8    9 2
  16    8   33 1
  17    9   10 1
  18    9   11 1
  19   10   13 2
  20   11   12 am
  21   11   26 2
  22   12   13 1
  23   12   14 1
  24   14   15 1
  25   14   34 1
  26   14   35 1
  27   15   16 ar
  28   15   20 ar
  29   16   17 ar
  30   16   36 1
  31   17   18 ar
  32   17   37 1
  33   18   19 ar
  34   18   21 1
  35   19   20 ar
  36   19   38 1
  37   20   39 1
  38   21   22 1
  39   21   25 2
  40   22   23 2
  41   22   40 1
  42   23   24 1
  43   24   25 1
  44   24   27 1
  45   25   41 1
  46   27   42 1
  47   27   43 1
  48   27   44 1

#	End of record

