#	Name: ASD00840813
#	Creating user name:	WinNT
#	Creation time:	15. 06. 2019 18:40

#	Modifying user name:	WinNT
#	Modification time:	15. 06. 2019 18:40

#	Program:	/corina/corina34_cracker 3.40 0067  02.08.2006

@<TRIPOS>MOLECULE
ASD00840813
  94   99    0    0    0
SMALL
NO_CHARGES


@<TRIPOS>ATOM
   1 F1             6.0751    -1.9604    -2.0097 F       
   2 N2             1.1031     1.4627    -0.6989 N.ar    
   3 C3             1.3545     0.1702    -0.8223 C.ar    
   4 C4             1.2597    -0.6771     0.2745 C.ar    
   5 C5             0.8978    -0.1513     1.5022 C.ar    
   6 C6             0.6422     1.2105     1.5899 C.ar    
   7 C7             0.7559     1.9932     0.4585 C.ar    
   8 C8             1.5466    -2.1494     0.1290 C.3     
   9 C9             1.2508    -2.8775     1.4226 C.2     
  10 C10            0.7278    -2.7427    -1.0192 C.3     
  11 C11           -0.7340    -2.4516    -0.7965 C.2     
  12 N12           -1.6585    -2.9672    -1.6308 N.am    
  13 O13           -1.0785    -1.7535     0.1334 O.2     
  14 C14           -3.0785    -2.6073    -1.4991 C.3     
  15 C15           -3.5959    -2.1581    -2.8698 C.3     
  16 N16           -3.3090    -3.2010    -3.8637 N.3     
  17 C17           -1.8626    -3.4043    -4.0205 C.3     
  18 C18           -1.2733    -3.8998    -2.7008 C.3     
  19 C19           -3.9392    -2.8871    -5.1530 C.3     
  20 C20           -3.5178    -3.9267    -6.1952 C.3     
  21 C21           -4.2249    -3.6299    -7.5196 C.3     
  22 N22           -5.6791    -3.6725    -7.3197 N.3     
  23 C23           -6.1131    -2.6510    -6.3582 C.3     
  24 C24           -5.4624    -2.9185    -4.9992 C.3     
  25 C25           -6.3904    -3.5292    -8.5970 C.3     
  26 O26            0.1747    -2.9517     1.9772 O.2     
  27 N27            2.4032    -3.4267     1.8413 N.am    
  28 C28            3.0238    -2.3814    -0.0952 C.ar    
  29 C29            3.4641    -3.1551     0.9738 C.ar    
  30 C30            3.8904    -1.9823    -1.0887 C.ar    
  31 C31            5.2236    -2.3501    -1.0358 C.ar    
  32 C32            5.6841    -3.1278     0.0315 C.ar    
  33 C33            4.8014    -3.5288     1.0339 C.ar    
  34 C34            2.2449    -6.0039     2.7939 C.ar    
  35 C35            3.2927    -6.8163     2.4019 C.ar    
  36 C36            0.9594    -6.5098     2.8529 C.ar    
  37 C37            0.7191    -7.8288     2.5201 C.ar    
  38 C38            1.7688    -8.6460     2.1265 C.ar    
  39 C39            3.0575    -8.1359     2.0677 C.ar    
  40 O40            1.5349    -9.9441     1.7990 O.3     
  41 H41            4.2959    -6.4188     2.3566 H       
  42 C42            2.6631   -10.7265     1.4028 C.3     
  43 C43           -7.8929    -3.7027    -8.3663 C.3     
  44 C44           -6.1207    -2.1397    -9.1779 C.3     
  45 O45            1.7079    -0.3330    -2.0317 O.3     
  46 C46            2.2172    -0.1431    -4.3865 C.3     
  47 C47            1.6794     0.5661    -3.1420 C.3     
  48 S48            2.5492    -4.3230     3.2260 S.o2    
  49 O49            3.9153    -4.2485     3.6101 O.2     
  50 O50            1.4806    -3.9271     4.0748 O.2     
  51 C51            7.0619    -3.5130     0.0945 C.1     
  52 N52            8.1549    -3.8186     0.1445 N.1     
  53 H53            0.8157    -0.7858     2.3723 H       
  54 H54            0.3572     1.6526     2.5331 H       
  55 H55            0.5585     3.0531     0.5214 H       
  56 H56            1.0474    -2.2975    -1.9614 H       
  57 H57            0.8820    -3.8211    -1.0562 H       
  58 H58           -3.6459    -3.4739    -1.1595 H       
  59 H59           -3.1849    -1.7928    -0.7826 H       
  60 H60           -4.6720    -1.9930    -2.8161 H       
  61 H61           -3.0995    -1.2322    -3.1604 H       
  62 H62           -1.6817    -4.1430    -4.8013 H       
  63 H63           -1.3904    -2.4611    -4.2950 H       
  64 H64           -0.1869    -3.9424    -2.7781 H       
  65 H65           -1.6662    -4.8909    -2.4736 H       
  66 H66           -3.6256    -1.8957    -5.4800 H       
  67 H67           -2.4386    -3.8797    -6.3404 H       
  68 H68           -3.7960    -4.9222    -5.8492 H       
  69 H69           -3.9356    -2.6399    -7.8718 H       
  70 H70           -3.9380    -4.3768    -8.2598 H       
  71 H71           -5.8149    -1.6655    -6.7160 H       
  72 H72           -7.1976    -2.6869    -6.2549 H       
  73 H73           -5.7711    -3.8982    -4.6344 H       
  74 H74           -5.7724    -2.1512    -4.2899 H       
  75 H75           -6.0399    -4.2892    -9.2954 H       
  76 H76            3.5289    -1.3818    -1.9104 H       
  77 H77            5.1574    -4.1294     1.8579 H       
  78 H78            0.1427    -5.8733     3.1598 H       
  79 H79           -0.2851    -8.2236     2.5667 H       
  80 H80            3.8764    -8.7702     1.7618 H       
  81 H81            3.1231   -10.2803     0.5211 H       
  82 H82            3.3886   -10.7557     2.2157 H       
  83 H83            2.3381   -11.7404     1.1693 H       
  84 H84           -8.2435    -2.9427    -7.6680 H       
  85 H85           -8.4207    -3.5964    -9.3141 H       
  86 H86           -8.0851    -4.6926    -7.9525 H       
  87 H87           -5.0503    -2.0161    -9.3422 H       
  88 H88           -6.6485    -2.0333   -10.1256 H       
  89 H89           -6.4713    -1.3797    -8.4795 H       
  90 H90            1.5475    -0.9593    -4.6575 H       
  91 H91            2.2775     0.5666    -5.2115 H       
  92 H92            3.2098    -0.5418    -4.1769 H       
  93 H93            0.6538     0.8884    -3.3222 H       
  94 H94            2.2999     1.4348    -2.9221 H       
@<TRIPOS>BOND
   1    1   31 1
   2    2    3 ar
   3    2    7 ar
   4    3    4 ar
   5    3   45 1
   6    4    5 ar
   7    4    8 1
   8    5    6 ar
   9    5   53 1
  10    6    7 ar
  11    6   54 1
  12    7   55 1
  13    8    9 1
  14    8   10 1
  15    8   28 1
  16    9   26 2
  17    9   27 am
  18   10   11 1
  19   10   56 1
  20   10   57 1
  21   11   12 am
  22   11   13 2
  23   12   14 1
  24   12   18 1
  25   14   15 1
  26   14   58 1
  27   14   59 1
  28   15   16 1
  29   15   60 1
  30   15   61 1
  31   16   17 1
  32   16   19 1
  33   17   18 1
  34   17   62 1
  35   17   63 1
  36   18   64 1
  37   18   65 1
  38   19   20 1
  39   19   24 1
  40   19   66 1
  41   20   21 1
  42   20   67 1
  43   20   68 1
  44   21   22 1
  45   21   69 1
  46   21   70 1
  47   22   23 1
  48   22   25 1
  49   23   24 1
  50   23   71 1
  51   23   72 1
  52   24   73 1
  53   24   74 1
  54   25   43 1
  55   25   44 1
  56   25   75 1
  57   27   48 am
  58   27   29 1
  59   28   29 ar
  60   28   30 ar
  61   29   33 ar
  62   30   31 ar
  63   30   76 1
  64   31   32 ar
  65   32   33 ar
  66   32   51 1
  67   33   77 1
  68   34   35 ar
  69   34   36 ar
  70   34   48 1
  71   35   41 1
  72   35   39 ar
  73   36   37 ar
  74   36   78 1
  75   37   38 ar
  76   37   79 1
  77   38   39 ar
  78   38   40 1
  79   39   80 1
  80   40   42 1
  81   42   81 1
  82   42   82 1
  83   42   83 1
  84   43   84 1
  85   43   85 1
  86   43   86 1
  87   44   87 1
  88   44   88 1
  89   44   89 1
  90   45   47 1
  91   46   47 1
  92   46   90 1
  93   46   91 1
  94   46   92 1
  95   47   93 1
  96   47   94 1
  97   48   49 2
  98   48   50 2
  99   51   52 3

#	End of record

