#	Name: ASD03331851
#	Creating user name:	WinNT
#	Creation time:	15. 06. 2019 20:40

#	Modifying user name:	WinNT
#	Modification time:	15. 06. 2019 20:40

#	Program:	/corina/corina34_cracker 3.40 0067  02.08.2006

@<TRIPOS>MOLECULE
ASD03331851
  44   46    0    0    0
SMALL
NO_CHARGES


@<TRIPOS>ATOM
   1 C1             1.1632    -0.4227    -1.2326 C.ar    
   2 C2             0.6532     0.0144    -2.4441 C.ar    
   3 C3             1.1659     1.1496    -3.0433 C.ar    
   4 C4             2.1887     1.8518    -2.4357 C.ar    
   5 C5             2.7026     1.4174    -1.2210 C.ar    
   6 C6             2.1869     0.2770    -0.6198 C.ar    
   7 N7             3.7389     2.1272    -0.6044 N.am    
   8 C8             3.7801     3.4715    -0.6917 C.2     
   9 N9             4.7248     4.1617    -0.0226 N.am    
  10 O10            2.9650     4.0616    -1.3741 O.2     
  11 C11            4.8284     5.5475    -0.1887 C.ar    
  12 C12            3.7811     7.6825    -0.5303 C.ar    
  13 C13            3.6830     6.3135    -0.3658 C.ar    
  14 C14            6.0739     6.1569    -0.1709 C.ar    
  15 C15            6.1719     7.5361    -0.3367 C.ar    
  16 C16            5.0174     8.2962    -0.5196 C.ar    
  17 C17            7.5007     8.1947    -0.3182 C.ar    
  18 C18            7.6092     9.5781    -0.4837 C.ar    
  19 C19            8.8696    10.1478    -0.4594 C.ar    
  20 N20            9.9275     9.3723    -0.2815 N.ar    
  21 C21            9.7951     8.0629    -0.1271 C.ar    
  22 N22            8.6076     7.4779    -0.1384 N.ar    
  23 N23           10.9270     7.2877     0.0564 N.pl3   
  24 C24           12.2499     7.9166     0.0780 C.3     
  25 C25           10.8020     5.8382     0.2289 C.3     
  26 F26            0.6567    -1.5297    -0.6466 F       
  27 H27           -0.1462    -0.5329    -2.9215 H       
  28 H28            0.7666     1.4879    -3.9881 H       
  29 H29            2.5888     2.7382    -2.9055 H       
  30 H30            2.5846    -0.0632     0.3249 H       
  31 H31            4.4277     1.6517    -0.1140 H       
  32 H32            5.3329     3.6979     0.5741 H       
  33 H33            2.8878     8.2736    -0.6676 H       
  34 H34            2.7133     5.8381    -0.3754 H       
  35 H35            6.9651     5.5638    -0.0286 H       
  36 H36            5.0902     9.3661    -0.6483 H       
  37 H37            6.7297    10.1881    -0.6276 H       
  38 H38            8.9891    11.2139    -0.5845 H       
  39 H39           12.1435     8.9919    -0.0651 H       
  40 H40           12.7283     7.7235     1.0382 H       
  41 H41           12.8623     7.5023    -0.7229 H       
  42 H42           10.8484     5.3511    -0.7451 H       
  43 H43           11.6166     5.4754     0.8558 H       
  44 H44            9.8481     5.6098     0.7043 H       
@<TRIPOS>BOND
   1    1    2 ar
   2    1    6 ar
   3    1   26 1
   4    2    3 ar
   5    2   27 1
   6    3    4 ar
   7    3   28 1
   8    4    5 ar
   9    4   29 1
  10    5    6 ar
  11    5    7 1
  12    6   30 1
  13    7    8 am
  14    7   31 1
  15    8    9 am
  16    8   10 2
  17    9   11 1
  18    9   32 1
  19   11   14 ar
  20   11   13 ar
  21   12   13 ar
  22   12   16 ar
  23   12   33 1
  24   13   34 1
  25   14   15 ar
  26   14   35 1
  27   15   16 ar
  28   15   17 1
  29   16   36 1
  30   17   18 ar
  31   17   22 ar
  32   18   19 ar
  33   18   37 1
  34   19   20 ar
  35   19   38 1
  36   20   21 ar
  37   21   22 ar
  38   21   23 1
  39   23   24 1
  40   23   25 1
  41   24   39 1
  42   24   40 1
  43   24   41 1
  44   25   42 1
  45   25   43 1
  46   25   44 1

#	End of record

