#	Name: ASD01410628
#	Creating user name:	WinNT
#	Creation time:	15. 06. 2019 19:18

#	Modifying user name:	WinNT
#	Modification time:	15. 06. 2019 19:18

#	Program:	/corina/corina34_cracker 3.40 0067  02.08.2006

@<TRIPOS>MOLECULE
ASD01410628
  64   66    0    0    0
SMALL
NO_CHARGES


@<TRIPOS>ATOM
   1 C1            -0.0251     1.2747    -0.0367 C.2     
   2 C2            -0.0527    -0.0961    -0.1463 C.2     
   3 C3             1.1739    -0.6728    -0.3711 C.2     
   4 C4             2.2138     0.2079    -0.4481 C.2     
   5 S5             1.6254     1.8496    -0.2271 S.3     
   6 C6             3.5811    -0.1520    -0.6752 C.1     
   7 C7             4.7021    -0.4470    -0.8614 C.1     
   8 C8             6.1076    -0.8169    -1.0948 C.3     
   9 C9             6.9708     0.4461    -1.1146 C.3     
  10 C10            6.5842    -1.7428     0.0261 C.3     
  11 C11            6.2286    -1.5386    -2.4385 C.3     
  12 N12           -1.2288    -0.8395    -0.0375 N.am    
  13 C13           -1.1531     2.0968     0.1888 C.2     
  14 O14           -2.2574     1.5973     0.3015 O.2     
  15 O15           -1.0054     3.4356     0.2790 O.3     
  16 C16           -1.6711    -1.2639     1.2886 C.3     
  17 C17           -1.9109    -1.1314    -1.1518 C.2     
  18 C18           -3.2084    -1.8905    -1.1247 C.3     
  19 O19           -1.4667    -0.7704    -2.2210 O.2     
  20 C20           -3.2033    -2.9461    -2.2322 C.3     
  21 O21           -3.3679    -2.5323     0.1428 O.3     
  22 H22           -4.0358    -1.1996    -1.2865 H       
  23 C23           -4.5685    -3.6346    -2.2869 C.3     
  24 C24           -4.6053    -4.6009    -3.4726 C.3     
  25 C25           -3.1527    -1.6442     1.2471 C.3     
  26 C26           -0.8483    -2.4738     1.7355 C.3     
  27 C27           -0.2341    -4.8349     1.1964 C.3     
  28 C28           -0.6849    -5.2708     2.5920 C.3     
  29 C29           -0.4762    -4.1197     3.5781 C.3     
  30 C30           -1.2990    -2.9098     3.1311 C.3     
  31 C31           -1.0570    -3.6249     0.7495 C.3     
  32 O32           -4.7853    -4.3595    -1.0747 O.3     
  33 H33            1.3051    -1.7395    -0.4781 H       
  34 H34            6.8846     0.9602    -0.1574 H       
  35 H35            8.0116     0.1722    -1.2875 H       
  36 H36            6.6313     1.1058    -1.9132 H       
  37 H37            5.9692    -2.6427     0.0402 H       
  38 H38            7.6249    -2.0168    -0.1468 H       
  39 H39            6.4979    -1.2287     0.9834 H       
  40 H40            5.8891    -0.8789    -3.2370 H       
  41 H41            7.2694    -1.8125    -2.6113 H       
  42 H42            5.6136    -2.4384    -2.4244 H       
  43 H43           -1.8320     3.9130     0.4339 H       
  44 H44           -1.5265    -0.4480     1.9967 H       
  45 H45           -2.9993    -2.4670    -3.1898 H       
  46 H46           -2.4309    -3.6867    -2.0246 H       
  47 H47           -5.3496    -2.8836    -2.4058 H       
  48 H48           -5.5779    -5.0913    -3.5115 H       
  49 H49           -4.4399    -4.0479    -4.3972 H       
  50 H50           -3.8242    -5.3518    -3.3536 H       
  51 H51           -3.4287    -2.1420     2.1768 H       
  52 H52           -3.7572    -0.7466     1.1167 H       
  53 H53            0.2078    -2.2052     1.7622 H       
  54 H54            0.8220    -4.5663     1.2231 H       
  55 H55           -0.3828    -5.6549     0.4939 H       
  56 H56           -1.7409    -5.5394     2.5653 H       
  57 H57           -0.0986    -6.1328     2.9105 H       
  58 H58           -0.7973    -4.4303     4.5723 H       
  59 H59            0.5799    -3.8511     3.6048 H       
  60 H60           -1.1504    -2.0897     3.8336 H       
  61 H61           -2.3551    -3.1784     3.1045 H       
  62 H62           -2.1130    -3.8935     0.7228 H       
  63 H63           -0.7358    -3.3144    -0.2448 H       
  64 H64           -5.6337    -4.8222    -1.0395 H       
@<TRIPOS>BOND
   1    1    2 2
   2    1    5 1
   3    1   13 1
   4    2    3 1
   5    2   12 1
   6    3    4 2
   7    3   33 1
   8    4    5 1
   9    4    6 1
  10    6    7 3
  11    7    8 1
  12    8    9 1
  13    8   10 1
  14    8   11 1
  15    9   34 1
  16    9   35 1
  17    9   36 1
  18   10   37 1
  19   10   38 1
  20   10   39 1
  21   11   40 1
  22   11   41 1
  23   11   42 1
  24   12   16 1
  25   12   17 am
  26   13   14 2
  27   13   15 1
  28   15   43 1
  29   16   25 1
  30   16   26 1
  31   16   44 1
  32   17   18 1
  33   17   19 2
  34   18   20 1
  35   18   21 1
  36   18   22 1
  37   20   23 1
  38   20   45 1
  39   20   46 1
  40   21   25 1
  41   23   24 1
  42   23   32 1
  43   23   47 1
  44   24   48 1
  45   24   49 1
  46   24   50 1
  47   25   51 1
  48   25   52 1
  49   26   31 1
  50   26   30 1
  51   26   53 1
  52   27   28 1
  53   27   31 1
  54   27   54 1
  55   27   55 1
  56   28   29 1
  57   28   56 1
  58   28   57 1
  59   29   30 1
  60   29   58 1
  61   29   59 1
  62   30   60 1
  63   30   61 1
  64   31   62 1
  65   31   63 1
  66   32   64 1

#	End of record

