#	Name: ASD01882766
#	Creating user name:	WinNT
#	Creation time:	15. 06. 2019 19:45

#	Modifying user name:	WinNT
#	Modification time:	15. 06. 2019 19:45

#	Program:	/corina/corina34_cracker 3.40 0067  02.08.2006

@<TRIPOS>MOLECULE
ASD01882766
  54   56    0    0    0
SMALL
NO_CHARGES


@<TRIPOS>ATOM
   1 C1            -0.0159     1.3220     0.0093 C.2     
   2 N2             0.0021    -0.0041     0.0020 N.2     
   3 C3             1.1523    -0.6857    -0.0126 C.2     
   4 C4             2.3835     0.0173    -0.0206 C.2     
   5 C5             2.3523     1.3664    -0.0131 C.2     
   6 N6             1.1484     2.0132     0.0019 N.pl3   
   7 O7            -1.0993     2.1290     0.0184 O.3     
   8 C8             0.8540     3.4562     0.0125 C.3     
   9 C9            -0.6831     3.5211     0.0242 C.3     
  10 O10            1.1423    -1.9071    -0.0187 O.2     
  11 C11           -1.1944     4.2379    -1.2270 C.3     
  12 O12           -2.6209     4.3119    -1.1842 O.3     
  13 C13           -3.2386     4.9234    -2.2289 C.ar    
  14 C14           -4.6218     5.0305    -2.2523 C.ar    
  15 C15           -5.2472     5.6524    -3.3153 C.ar    
  16 C16           -4.4961     6.1677    -4.3558 C.ar    
  17 C17           -3.1179     6.0618    -4.3350 C.ar    
  18 C18           -2.4871     5.4465    -3.2708 C.ar    
  19 C19           -5.1811     6.8453    -5.5145 C.3     
  20 C20           -5.9792     8.0465    -5.0035 C.3     
  21 C21           -4.1310     7.3212    -6.5203 C.3     
  22 C22           -6.1287     5.8561    -6.1961 C.3     
  23 C23           -5.4410     4.4683    -1.1192 C.3     
  24 C24           -6.9259     4.7177    -1.3908 C.3     
  25 C25           -5.1891     2.9635    -1.0054 C.3     
  26 C26           -5.0398     5.1530     0.1889 C.3     
  27 H27            3.3237    -0.5140    -0.0321 H       
  28 H28            3.2727     1.9314    -0.0185 H       
  29 H29            1.2651     3.9237     0.9072 H       
  30 H30            1.2480     3.9334    -0.8848 H       
  31 H31           -1.0396     4.0220     0.9243 H       
  32 H32           -0.7793     5.2451    -1.2639 H       
  33 H33           -0.8857     3.6850    -2.1142 H       
  34 H34           -6.3238     5.7360    -3.3340 H       
  35 H35           -2.5335     6.4647    -5.1490 H       
  36 H36           -1.4100     5.3683    -3.2527 H       
  37 H37           -5.3042     8.7512    -4.5179 H       
  38 H38           -6.4747     8.5366    -5.8416 H       
  39 H39           -6.7274     7.7074    -4.2870 H       
  40 H40           -3.5624     6.4655    -6.8843 H       
  41 H41           -4.6265     7.8113    -7.3584 H       
  42 H42           -3.4560     8.0260    -6.0347 H       
  43 H43           -6.8768     5.5170    -5.4795 H       
  44 H44           -6.6241     6.3462    -7.0342 H       
  45 H45           -5.5601     5.0003    -6.5601 H       
  46 H46           -7.2118     4.2299    -2.3227 H       
  47 H47           -7.5185     4.3111    -0.5713 H       
  48 H48           -7.1054     5.7898    -1.4719 H       
  49 H49           -4.1312     2.7858    -0.8119 H       
  50 H50           -5.7816     2.5569    -0.1859 H       
  51 H51           -5.4749     2.4757    -1.9373 H       
  52 H52           -5.2192     6.2250     0.1078 H       
  53 H53           -5.6323     4.7464     1.0084 H       
  54 H54           -3.9819     4.9753     0.3823 H       
@<TRIPOS>BOND
   1    1    2 2
   2    1    6 1
   3    1    7 1
   4    2    3 1
   5    3    4 1
   6    3   10 2
   7    4    5 2
   8    4   27 1
   9    5    6 1
  10    5   28 1
  11    6    8 1
  12    7    9 1
  13    8    9 1
  14    8   29 1
  15    8   30 1
  16    9   11 1
  17    9   31 1
  18   11   12 1
  19   11   32 1
  20   11   33 1
  21   12   13 1
  22   13   14 ar
  23   13   18 ar
  24   14   15 ar
  25   14   23 1
  26   15   16 ar
  27   15   34 1
  28   16   17 ar
  29   16   19 1
  30   17   18 ar
  31   17   35 1
  32   18   36 1
  33   19   20 1
  34   19   22 1
  35   19   21 1
  36   20   37 1
  37   20   38 1
  38   20   39 1
  39   21   40 1
  40   21   41 1
  41   21   42 1
  42   22   43 1
  43   22   44 1
  44   22   45 1
  45   23   24 1
  46   23   26 1
  47   23   25 1
  48   24   46 1
  49   24   47 1
  50   24   48 1
  51   25   49 1
  52   25   50 1
  53   25   51 1
  54   26   52 1
  55   26   53 1
  56   26   54 1

#	End of record

