#	Name: ASD00451019
#	Creating user name:	WinNT
#	Creation time:	15. 06. 2019 18:36

#	Modifying user name:	WinNT
#	Modification time:	15. 06. 2019 18:36

#	Program:	/corina/corina34_cracker 3.40 0067  02.08.2006

@<TRIPOS>MOLECULE
ASD00451019
  61   66    0    0    0
SMALL
NO_CHARGES


@<TRIPOS>ATOM
   1 C1            -0.1171     1.5346     0.0362 C.ar    
   2 C2            -0.1951     0.1504     0.0219 C.ar    
   3 N3             1.1299     2.1672    -0.0068 N.am    
   4 C4            -1.2903     2.2982     0.0882 C.ar    
   5 C5            -1.4263    -0.4751     0.0644 C.ar    
   6 C6             2.1852     1.5391    -0.5621 C.2     
   7 C7            -2.5286     1.6602     0.1250 C.ar    
   8 C8            -2.5922     0.2768     0.1213 C.ar    
   9 O9             2.0719     0.3958    -0.9600 O.2     
  10 N10            3.3662     2.1785    -0.6763 N.am    
  11 O11           -3.8000    -0.3466     0.1573 O.3     
  12 C12            4.4936     1.4887    -1.1360 C.ar    
  13 C13           -4.1899    -0.9141     1.3277 C.ar    
  14 C14            5.5226     2.1778    -1.7639 C.ar    
  15 C15            4.5882     0.1143    -0.9600 C.ar    
  16 C16           -5.4533    -1.4844     1.4610 C.ar    
  17 C17           -3.3351    -0.9474     2.4273 C.ar    
  18 C18            6.6344     1.4941    -2.2161 C.ar    
  19 C19            5.7023    -0.5634    -1.4144 C.ar    
  20 N20           -6.5372    -1.6345     0.5982 N.am    
  21 C21           -5.8189    -2.0588     2.6787 C.ar    
  22 C22           -3.7672    -1.5335     3.6000 C.ar    
  23 C23            6.7233     0.1251    -2.0441 C.ar    
  24 C24           -7.5183    -2.2728     1.2646 C.2     
  25 N25           -7.1144    -2.5354     2.5214 N.am    
  26 N26           -4.9727    -2.0611     3.6977 N.ar    
  27 O27           -8.6068    -2.5612     0.8032 O.2     
  28 H28            1.2350     3.0577     0.3629 H       
  29 H29            3.4346     3.1167    -0.4398 H       
  30 H30           -6.5782    -1.3316    -0.3223 H       
  31 H31           -7.6378    -2.9874     3.2016 H       
  32 C32           -1.2149     3.7766     0.1043 C.ar    
  33 C33           -1.6441     4.4866     1.2118 C.ar    
  34 C34           -1.5760     5.8753     1.2345 C.ar    
  35 C35           -1.0873     6.5741     0.1725 C.ar    
  36 C36           -0.6407     5.8932    -0.9734 C.ar    
  37 C37           -0.6975     4.4788    -1.0109 C.ar    
  38 C38           -0.1323     6.5910    -2.0827 C.ar    
  39 C39            0.2916     5.9004    -3.1764 C.ar    
  40 C40            0.2291     4.5092    -3.2140 C.ar    
  41 C41           -0.2518     3.8008    -2.1546 C.ar    
  42 C42            7.7515     2.2411    -2.8982 C.3     
  43 F43            8.6853     2.6573    -1.9432 F       
  44 F44            8.3762     1.4006    -3.8258 F       
  45 F45            7.2301     3.3587    -3.5586 F       
  46 H46            0.7081    -0.4399    -0.0230 H       
  47 H47           -1.4821    -1.5536     0.0530 H       
  48 H48           -3.4367     2.2434     0.1651 H       
  49 H49            5.4537     3.2471    -1.8988 H       
  50 H50            3.7915    -0.4239    -0.4681 H       
  51 H51           -2.3455    -0.5197     2.3628 H       
  52 H52            5.7765    -1.6321    -1.2779 H       
  53 H53           -3.1062    -1.5608     4.4536 H       
  54 H54            7.5934    -0.4072    -2.3989 H       
  55 H55           -2.0363     3.9568     2.0673 H       
  56 H56           -1.9169     6.4090     2.1093 H       
  57 H57           -1.0431     7.6525     0.2107 H       
  58 H58           -0.0787     7.6696    -2.0674 H       
  59 H59            0.6818     6.4388    -4.0275 H       
  60 H60            0.5715     3.9845    -4.0938 H       
  61 H61           -0.2943     2.7225    -2.1971 H       
@<TRIPOS>BOND
   1    1    2 ar
   2    1    3 1
   3    1    4 ar
   4    2    5 ar
   5    2   46 1
   6    3   28 1
   7    3    6 am
   8    4   32 1
   9    4    7 ar
  10    5    8 ar
  11    5   47 1
  12    6    9 2
  13    6   10 am
  14    7    8 ar
  15    7   48 1
  16    8   11 1
  17   10   12 1
  18   10   29 1
  19   11   13 1
  20   12   14 ar
  21   12   15 ar
  22   13   16 ar
  23   13   17 ar
  24   14   18 ar
  25   14   49 1
  26   15   19 ar
  27   15   50 1
  28   16   20 1
  29   16   21 ar
  30   17   22 ar
  31   17   51 1
  32   18   23 ar
  33   18   42 1
  34   19   23 ar
  35   19   52 1
  36   20   30 1
  37   20   24 am
  38   21   26 ar
  39   21   25 1
  40   22   26 ar
  41   22   53 1
  42   23   54 1
  43   24   25 am
  44   24   27 2
  45   25   31 1
  46   32   33 ar
  47   32   37 ar
  48   33   34 ar
  49   33   55 1
  50   34   35 ar
  51   34   56 1
  52   35   36 ar
  53   35   57 1
  54   36   37 ar
  55   36   38 ar
  56   37   41 ar
  57   38   39 ar
  58   38   58 1
  59   39   40 ar
  60   39   59 1
  61   40   41 ar
  62   40   60 1
  63   41   61 1
  64   42   43 1
  65   42   44 1
  66   42   45 1

#	End of record

