#	Name: ASD08170136
#	Creating user name:	WinNT
#	Creation time:	15. 06. 2019 21:17

#	Modifying user name:	WinNT
#	Modification time:	15. 06. 2019 21:17

#	Program:	/corina/corina34_cracker 3.40 0067  02.08.2006

@<TRIPOS>MOLECULE
ASD08170136
  67   70    0    0    0
SMALL
NO_CHARGES


@<TRIPOS>ATOM
   1 C1            -0.0184     1.5028     0.0103 C.3     
   2 C2             3.1542     4.2782    -0.0051 C.3     
   3 C3             3.3060     5.8007     0.0016 C.3     
   4 C4             4.7695     6.1596    -0.0104 C.2     
   5 C5             0.0021    -0.0041     0.0020 C.2     
   6 S6             5.7936     6.3998     1.4057 S.3     
   7 C7             7.1163     6.7314     0.3688 C.2     
   8 N8             6.7127     6.6418    -0.8625 N.2     
   9 N9             5.5028     6.3417    -1.0624 N.2     
  10 S10            0.0026    -1.0367    -1.4281 S.3     
  11 N11            0.0281    -0.7735     1.0436 N.2     
  12 N12            0.0423    -2.0172     0.8270 N.2     
  13 C13            0.0316    -2.4140    -0.4097 C.2     
  14 N14            0.0439    -3.7376    -0.8365 N.am    
  15 C15            0.0694    -4.7369     0.0675 C.2     
  16 O16            0.0817    -4.4819     1.2531 O.2     
  17 N17            8.4080     7.0451     0.7777 N.am    
  18 C18            9.3654     7.2864    -0.1397 C.2     
  19 C19           10.7651     7.6263     0.3033 C.3     
  20 O20            9.1005     7.2299    -1.3219 O.2     
  21 C21            0.0826    -6.1711    -0.3950 C.3     
  22 C22            0.1109    -7.0850     0.8030 C.ar    
  23 C23            1.4170     2.0324    -0.0006 C.3     
  24 S24            1.3924     3.8462     0.0094 S.3     
  25 C25            1.3166    -7.5709     1.2733 C.ar    
  26 C26           11.6352     7.8482    -0.9069 C.ar    
  27 C27           11.6689     9.0887    -1.5159 C.ar    
  28 C28           12.4669     9.2923    -2.6261 C.ar    
  29 C29           13.2317     8.2554    -3.1271 C.ar    
  30 C30           13.1987     7.0152    -2.5176 C.ar    
  31 C31           12.4039     6.8128    -1.4048 C.ar    
  32 C32           -1.0683    -7.4327     1.4350 C.ar    
  33 C33           -1.0423    -8.2710     2.5339 C.ar    
  34 C34            0.1628    -8.7618     3.0005 C.ar    
  35 C35            1.3425    -8.4092     2.3722 C.ar    
  36 C36           -2.3820    -6.8976     0.9264 C.3     
  37 O37           -3.4462    -7.3960     1.7394 O.3     
  38 C38           10.8351    10.2191    -0.9697 C.3     
  39 O39           11.0398    11.3890    -1.7643 O.3     
  40 H40           -0.5455     1.8639    -0.8728 H       
  41 H41           -0.5286     1.8543     0.9071 H       
  42 H42            3.6209     3.8705    -0.9018 H       
  43 H43            3.6379     3.8610     0.8781 H       
  44 H44            2.8222     6.2179    -0.8815 H       
  45 H45            2.8392     6.2084     0.8983 H       
  46 H46            0.0340    -3.9415    -1.7848 H       
  47 H47            8.6200     7.0903     1.7232 H       
  48 H48           10.7448     8.5333     0.9075 H       
  49 H49           11.1685     6.8045     0.8951 H       
  50 H50           -0.8126    -6.3714    -0.9836 H       
  51 H51            0.9670    -6.3473    -1.0073 H       
  52 H52            1.9442     1.6713     0.8825 H       
  53 H53            1.9272     1.6808    -0.8974 H       
  54 H54            2.2382    -7.2959     0.7820 H       
  55 H55           12.4927    10.2613    -3.1022 H       
  56 H56           13.8546     8.4143    -3.9949 H       
  57 H57           13.7959     6.2050    -2.9092 H       
  58 H58           12.3782     5.8438    -0.9286 H       
  59 H59           -1.9635    -8.5421     3.0281 H       
  60 H60            0.1831    -9.4164     3.8592 H       
  61 H61            2.2840    -8.7927     2.7367 H       
  62 H62           -2.3717    -5.8085     0.9690 H       
  63 H63           -2.5308    -7.2195    -0.1043 H       
  64 H64           -4.3234    -7.0916     1.4692 H       
  65 H65            9.7818     9.9403    -0.9981 H       
  66 H66           11.1294    10.4230     0.0598 H       
  67 H67           10.5331    12.1581    -1.4697 H       
@<TRIPOS>BOND
   1    1    5 1
   2    1   23 1
   3    1   40 1
   4    1   41 1
   5    2    3 1
   6    2   24 1
   7    2   42 1
   8    2   43 1
   9    3    4 1
  10    3   44 1
  11    3   45 1
  12    4    6 1
  13    4    9 2
  14    5   10 1
  15    5   11 2
  16    6    7 1
  17    7    8 2
  18    7   17 1
  19    8    9 1
  20   10   13 1
  21   11   12 1
  22   12   13 2
  23   13   14 1
  24   14   15 am
  25   14   46 1
  26   15   16 2
  27   15   21 1
  28   17   18 am
  29   17   47 1
  30   18   19 1
  31   18   20 2
  32   19   26 1
  33   19   48 1
  34   19   49 1
  35   21   22 1
  36   21   50 1
  37   21   51 1
  38   22   25 ar
  39   22   32 ar
  40   23   24 1
  41   23   52 1
  42   23   53 1
  43   25   35 ar
  44   25   54 1
  45   26   27 ar
  46   26   31 ar
  47   27   28 ar
  48   27   38 1
  49   28   29 ar
  50   28   55 1
  51   29   30 ar
  52   29   56 1
  53   30   31 ar
  54   30   57 1
  55   31   58 1
  56   32   33 ar
  57   32   36 1
  58   33   34 ar
  59   33   59 1
  60   34   35 ar
  61   34   60 1
  62   35   61 1
  63   36   37 1
  64   36   62 1
  65   36   63 1
  66   37   64 1
  67   38   39 1
  68   38   65 1
  69   38   66 1
  70   39   67 1

#	End of record

