#	Name: ASD08170150
#	Creating user name:	WinNT
#	Creation time:	15. 06. 2019 21:17

#	Modifying user name:	WinNT
#	Modification time:	15. 06. 2019 21:17

#	Program:	/corina/corina34_cracker 3.40 0067  02.08.2006

@<TRIPOS>MOLECULE
ASD08170150
  68   71    0    0    0
SMALL
NO_CHARGES


@<TRIPOS>ATOM
   1 Cl1            0.0000     0.0000     0.0000 Cl      
   2 H2             0.0000     1.3700     0.0000 H       
   3 Cl3            5.0000     6.3700     5.0000 Cl      
   4 H4             5.0000     7.7400     5.0000 H       
   5 C5            12.1413    24.6808    11.7951 C.3     
   6 C6            13.5559    26.7402    11.7926 C.3     
   7 C7            14.9913    27.2698    11.7818 C.3     
   8 C8            14.9708    28.7767    11.7901 C.2     
   9 C9            12.1617    23.1740    11.7868 C.2     
  10 S10           14.9431    29.8246    10.3714 S.3     
  11 C11           14.9337    31.1909    11.4048 C.2     
  12 N12           14.9508    30.7808    12.6372 N.2     
  13 N13           14.9648    29.5348    12.8402 N.2     
  14 S14           12.1622    22.1413    10.3567 S.3     
  15 N15           12.1877    22.4046    12.8284 N.2     
  16 N16           12.2019    21.1609    12.6118 N.2     
  17 C17           12.1913    20.7641    11.3750 C.2     
  18 N18           12.2035    19.4405    10.9483 N.am    
  19 C19           12.2290    18.4412    11.8523 C.2     
  20 O20           12.2413    18.6962    13.0379 O.2     
  21 N21           14.9118    32.5189    10.9926 N.am    
  22 C22           14.9064    33.5085    11.9076 C.2     
  23 C23           14.8827    34.9476    11.4609 C.3     
  24 O24           14.9207    33.2409    13.0904 O.2     
  25 C25           12.2423    17.0069    11.3898 C.3     
  26 C26           12.2706    16.0931    12.5878 C.2     
  27 C27           13.5766    25.2104    11.7842 C.3     
  28 C28           14.8812    35.8486    12.6690 C.2     
  29 C29           11.1865    15.6131    13.2122 C.2     
  30 C30           15.9789    36.3222    13.2740 C.2     
  31 C31           15.5060    37.1472    14.3922 C.ar    
  32 C32           14.1037    37.0807    14.3408 C.ar    
  33 O33           13.7781    36.2983    13.2923 O.3     
  34 C34           16.1352    37.8994    15.3830 C.ar    
  35 C35           15.3816    38.5721    16.3046 C.ar    
  36 C36           13.9963    38.5103    16.2591 C.ar    
  37 C37           13.3566    37.7720    15.2865 C.ar    
  38 C38           11.6840    14.7761    14.3106 C.ar    
  39 C39           13.0849    14.8431    14.2285 C.ar    
  40 O40           13.3872    15.6366    13.1814 O.3     
  41 C41           11.0769    14.0135    15.3072 C.ar    
  42 C42           11.8508    13.3309    16.2044 C.ar    
  43 C43           13.2347    13.3931    16.1286 C.ar    
  44 C44           13.8527    14.1417    15.1498 C.ar    
  45 H45           11.6141    25.0419    10.9120 H       
  46 H46           11.6311    25.0323    12.6919 H       
  47 H47           13.0457    27.0918    12.6894 H       
  48 H48           13.0287    27.1013    10.9096 H       
  49 H49           15.5185    26.9087    12.6648 H       
  50 H50           15.5015    26.9183    10.8850 H       
  51 H51           12.1936    19.2365    10.0000 H       
  52 H52           14.9004    32.7330    10.0466 H       
  53 H53           15.7645    35.1544    10.8546 H       
  54 H54           13.9848    35.1300    10.8705 H       
  55 H55           11.3470    16.8067    10.8012 H       
  56 H56           13.1266    16.8308    10.7775 H       
  57 H57           14.1038    24.8493    12.6673 H       
  58 H58           14.0868    24.8589    10.8874 H       
  59 H59           10.1542    15.8041    12.9586 H       
  60 H60           17.0053    36.1342    12.9954 H       
  61 H61           17.2133    37.9503    15.4228 H       
  62 H62           15.8678    39.1548    17.0730 H       
  63 H63           13.4131    39.0464    16.9932 H       
  64 H64           12.2777    37.7311    15.2597 H       
  65 H65           10.0000    13.9622    15.3706 H       
  66 H66           11.3817    12.7400    16.9772 H       
  67 H67           13.8341    12.8491    16.8436 H       
  68 H68           14.9308    14.1827    15.0993 H       
@<TRIPOS>BOND
   1    1    2 1
   2    3    4 1
   3    5    9 1
   4    5   27 1
   5    5   45 1
   6    5   46 1
   7    6    7 1
   8    6   27 1
   9    6   47 1
  10    6   48 1
  11    7    8 1
  12    7   49 1
  13    7   50 1
  14    8   10 1
  15    8   13 2
  16    9   14 1
  17    9   15 2
  18   10   11 1
  19   11   12 2
  20   11   21 1
  21   12   13 1
  22   14   17 1
  23   15   16 1
  24   16   17 2
  25   17   18 1
  26   18   19 am
  27   18   51 1
  28   19   20 2
  29   19   25 1
  30   21   22 am
  31   21   52 1
  32   22   23 1
  33   22   24 2
  34   23   28 1
  35   23   53 1
  36   23   54 1
  37   25   26 1
  38   25   55 1
  39   25   56 1
  40   26   29 2
  41   26   40 1
  42   27   57 1
  43   27   58 1
  44   28   30 2
  45   28   33 1
  46   29   38 1
  47   29   59 1
  48   30   31 1
  49   30   60 1
  50   31   32 ar
  51   31   34 ar
  52   32   33 1
  53   32   37 ar
  54   34   35 ar
  55   34   61 1
  56   35   36 ar
  57   35   62 1
  58   36   37 ar
  59   36   63 1
  60   37   64 1
  61   38   39 ar
  62   38   41 ar
  63   39   40 1
  64   39   44 ar
  65   41   42 ar
  66   41   65 1
  67   42   43 ar
  68   42   66 1
  69   43   44 ar
  70   43   67 1
  71   44   68 1

#	End of record

