#	Name: ASD02401010
#	Creating user name:	WinNT
#	Creation time:	15. 06. 2019 20:20

#	Modifying user name:	WinNT
#	Modification time:	15. 06. 2019 20:20

#	Program:	/corina/corina34_cracker 3.40 0067  02.08.2006

@<TRIPOS>MOLECULE
ASD02401010
  26   27    0    0    0
SMALL
NO_CHARGES


@<TRIPOS>ATOM
   1 C1            -0.0167     1.3793     0.0096 C.ar    
   2 C2             0.0021    -0.0041     0.0020 C.ar    
   3 C3             1.2098    -0.6789    -0.0131 C.ar    
   4 C4             2.3967     0.0292    -0.0207 C.ar    
   5 C5             2.3773     1.4115    -0.0126 C.ar    
   6 C6             1.1709     2.0863     0.0021 C.ar    
   7 C7             3.6719     2.1830    -0.0203 C.3     
   8 C8             3.9640     2.6600    -1.4196 C.ar    
   9 C9             4.7852     1.9159    -2.2460 C.ar    
  10 C10            5.0535     2.3529    -3.5295 C.ar    
  11 C11            4.5000     3.5354    -3.9872 C.ar    
  12 C12            3.6782     4.2797    -3.1597 C.ar    
  13 C13            3.4061     3.8388    -1.8783 C.ar    
  14 Cl14          -1.4892    -0.8928     0.0121 Cl      
  15 Cl15           4.8369     4.0853    -5.5990 Cl      
  16 O16            3.5609     3.3084     0.8532 O.3     
  17 H17           -0.9592     1.9066     0.0170 H       
  18 H18            1.2250    -1.7588    -0.0187 H       
  19 H19            3.3395    -0.4974    -0.0325 H       
  20 H20            1.1564     3.1662     0.0084 H       
  21 H21            4.4816     1.5374     0.3199 H       
  22 H22            5.2175     0.9930    -1.8885 H       
  23 H23            5.6953     1.7716    -4.1749 H       
  24 H24            3.2458     5.2029    -3.5164 H       
  25 H25            2.7646     4.4197    -1.2323 H       
  26 H26            2.8585     3.9271     0.6102 H       
@<TRIPOS>BOND
   1    1    2 ar
   2    1    6 ar
   3    1   17 1
   4    2    3 ar
   5    2   14 1
   6    3    4 ar
   7    3   18 1
   8    4    5 ar
   9    4   19 1
  10    5    6 ar
  11    5    7 1
  12    6   20 1
  13    7    8 1
  14    7   16 1
  15    7   21 1
  16    8    9 ar
  17    8   13 ar
  18    9   10 ar
  19    9   22 1
  20   10   11 ar
  21   10   23 1
  22   11   12 ar
  23   11   15 1
  24   12   13 ar
  25   12   24 1
  26   13   25 1
  27   16   26 1

#	End of record

