#	Name: ASD01208459
#	Creating user name:	WinNT
#	Creation time:	15. 06. 2019 19:09

#	Modifying user name:	WinNT
#	Modification time:	15. 06. 2019 19:09

#	Program:	/corina/corina34_cracker 3.40 0067  02.08.2006

@<TRIPOS>MOLECULE
ASD01208459
  95  100    0    0    0
SMALL
NO_CHARGES


@<TRIPOS>ATOM
   1 N1            -0.6993     2.4270     0.5982 N.pl3   
   2 C2            -0.4865     1.1135     0.2446 C.2     
   3 C3             0.8766     0.8983     0.2044 C.2     
   4 C4             1.4991     2.0996     0.5386 C.2     
   5 C5             0.5110     3.0300     0.7779 C.2     
   6 C6            -1.5248     0.1183    -0.0387 C.2     
   7 O7            -1.2119    -1.0179    -0.3429 O.2     
   8 N8            -2.8259     0.4614     0.0375 N.am    
   9 C9            -3.8635    -0.5332    -0.2457 C.3     
  10 C10           -5.2429     0.1101    -0.0890 C.3     
  11 S11           -6.5278    -1.1215    -0.4397 S.3     
  12 C12           -8.0625    -0.2233    -0.0816 C.3     
  13 C13           -8.5465     2.9494    -2.9007 C.ar    
  14 C14          -11.3791    -2.9003    -0.3674 C.ar    
  15 C15           -7.8757     1.3967     3.8666 C.ar    
  16 C16           -9.4946     2.7503    -1.9146 C.ar    
  17 C17           -9.3382     1.7234    -1.0026 C.ar    
  18 C18           -8.2334     0.8959    -1.0762 C.ar    
  19 C19           -7.2850     1.0953    -2.0620 C.ar    
  20 C20           -7.4416     2.1219    -2.9743 C.ar    
  21 C21          -11.4064    -1.8608     0.5434 C.ar    
  22 C22          -10.3330    -0.9947     0.6362 C.ar    
  23 C23           -9.2325    -1.1678    -0.1823 C.ar    
  24 C24           -9.2054    -2.2070    -1.0935 C.ar    
  25 C25          -10.2786    -3.0733    -1.1859 C.ar    
  26 C26           -7.8436     0.0275     3.6791 C.ar    
  27 C27           -7.9044    -0.4968     2.4014 C.ar    
  28 C28           -7.9968     0.3482     1.3113 C.ar    
  29 C29           -8.0284     1.7174     1.4988 C.ar    
  30 C30           -7.9681     2.2417     2.7764 C.ar    
  31 C31            0.7261     4.4408     1.1635 C.ar    
  32 C32            2.0224     4.9350     1.3148 C.ar    
  33 C33            2.2195     6.2573     1.6757 C.ar    
  34 C34            1.1304     7.0906     1.8873 C.ar    
  35 C35           -0.1602     6.6035     1.7379 C.ar    
  36 C36           -0.3662     5.2833     1.3715 C.ar    
  37 O37           -1.2234     7.4235     1.9467 O.3     
  38 C38           -1.9058     7.2984     3.1151 C.ar    
  39 C39           -3.0621     8.0356     3.3271 C.ar    
  40 C40           -3.7539     7.9065     4.5157 C.ar    
  41 C41           -3.2951     7.0436     5.4939 C.ar    
  42 C42           -2.1429     6.3082     5.2854 C.ar    
  43 C43           -1.4508     6.4289     4.0961 C.ar    
  44 S44           -4.1799     6.8814     7.0090 S.o2    
  45 O45           -3.1952     6.4713     7.9477 O.2     
  46 O46           -4.8581     8.1218     7.1533 O.2     
  47 C47           -5.3630     5.5412     6.7009 C.3     
  48 O48            3.4816     6.7395     1.8233 O.3     
  49 C49            3.6149     8.1364     2.0934 C.3     
  50 C50            4.9899     8.6174     1.6254 C.3     
  51 C51            3.4738     8.3808     3.5972 C.3     
  52 O52            6.0067     7.9831     2.4037 O.3     
  53 C53            7.3362     8.3652     2.0453 C.3     
  54 H54           -1.5648     2.8533     0.6985 H       
  55 H55            1.3699    -0.0306    -0.0408 H       
  56 H56            2.5638     2.2704     0.5994 H       
  57 H57           -3.0753     1.3669     0.2799 H       
  58 H58           -3.7471    -0.8994    -1.2657 H       
  59 H59           -3.7693    -1.3653     0.4520 H       
  60 H60           -5.3593     0.4762     0.9310 H       
  61 H61           -5.3371     0.9422    -0.7867 H       
  62 H62           -8.6710     3.7489    -3.6160 H       
  63 H63          -12.2158    -3.5796    -0.4368 H       
  64 H64           -7.8327     1.8061     4.8650 H       
  65 H65          -10.3576     3.3970    -1.8569 H       
  66 H66          -10.0786     1.5683    -0.2318 H       
  67 H67           -6.4216     0.4490    -2.1193 H       
  68 H68           -6.7007     2.2776    -3.7445 H       
  69 H69          -12.2663    -1.7254     1.1826 H       
  70 H70          -10.3546    -0.1822     1.3473 H       
  71 H71           -8.3458    -2.3420    -1.7332 H       
  72 H72          -10.2575    -3.8852    -1.8978 H       
  73 H73           -7.7711    -0.6326     4.5307 H       
  74 H74           -7.8787    -1.5665     2.2549 H       
  75 H75           -8.1002     2.3776     0.6471 H       
  76 H76           -7.9928     3.3114     2.9229 H       
  77 H77            2.8707     4.2869     1.1510 H       
  78 H78            1.2876     8.1212     2.1693 H       
  79 H79           -1.3709     4.9060     1.2511 H       
  80 H80           -3.4207     8.7100     2.5635 H       
  81 H81           -4.6537     8.4804     4.6813 H       
  82 H82           -1.7863     5.6354     6.0513 H       
  83 H83           -0.5535     5.8506     3.9318 H       
  84 H84           -4.8216     4.6301     6.4463 H       
  85 H85           -5.9602     5.3707     7.5967 H       
  86 H86           -6.0180     5.8176     5.8747 H       
  87 H87            2.8376     8.6851     1.5616 H       
  88 H88            5.1253     8.3631     0.5742 H       
  89 H89            5.0584     9.6981     1.7496 H       
  90 H90            4.2510     7.8320     4.1290 H       
  91 H91            3.5755     9.4463     3.8032 H       
  92 H92            2.4942     8.0381     3.9306 H       
  93 H93            8.0490     7.8407     2.6816 H       
  94 H94            7.5203     8.1057     1.0028 H       
  95 H95            7.4534     9.4407     2.1782 H       
@<TRIPOS>BOND
   1    1    2 1
   2    1    5 1
   3    1   54 1
   4    2    3 2
   5    2    6 1
   6    3    4 1
   7    3   55 1
   8    4    5 2
   9    4   56 1
  10    5   31 1
  11    6    7 2
  12    6    8 am
  13    8    9 1
  14    8   57 1
  15    9   10 1
  16    9   58 1
  17    9   59 1
  18   10   11 1
  19   10   60 1
  20   10   61 1
  21   11   12 1
  22   12   18 1
  23   12   23 1
  24   12   28 1
  25   13   16 ar
  26   13   20 ar
  27   13   62 1
  28   14   21 ar
  29   14   25 ar
  30   14   63 1
  31   15   26 ar
  32   15   30 ar
  33   15   64 1
  34   16   17 ar
  35   16   65 1
  36   17   18 ar
  37   17   66 1
  38   18   19 ar
  39   19   20 ar
  40   19   67 1
  41   20   68 1
  42   21   22 ar
  43   21   69 1
  44   22   23 ar
  45   22   70 1
  46   23   24 ar
  47   24   25 ar
  48   24   71 1
  49   25   72 1
  50   26   27 ar
  51   26   73 1
  52   27   28 ar
  53   27   74 1
  54   28   29 ar
  55   29   30 ar
  56   29   75 1
  57   30   76 1
  58   31   32 ar
  59   31   36 ar
  60   32   33 ar
  61   32   77 1
  62   33   34 ar
  63   33   48 1
  64   34   35 ar
  65   34   78 1
  66   35   36 ar
  67   35   37 1
  68   36   79 1
  69   37   38 1
  70   38   39 ar
  71   38   43 ar
  72   39   40 ar
  73   39   80 1
  74   40   41 ar
  75   40   81 1
  76   41   42 ar
  77   41   44 1
  78   42   43 ar
  79   42   82 1
  80   43   83 1
  81   44   45 2
  82   44   46 2
  83   44   47 1
  84   47   84 1
  85   47   85 1
  86   47   86 1
  87   48   49 1
  88   49   50 1
  89   49   51 1
  90   49   87 1
  91   50   52 1
  92   50   88 1
  93   50   89 1
  94   51   90 1
  95   51   91 1
  96   51   92 1
  97   52   53 1
  98   53   93 1
  99   53   94 1
 100   53   95 1

#	End of record

