#	Name: ASD01200367
#	Creating user name:	WinNT
#	Creation time:	15. 06. 2019 19:09

#	Modifying user name:	WinNT
#	Modification time:	15. 06. 2019 19:09

#	Program:	/corina/corina34_cracker 3.40 0067  02.08.2006

@<TRIPOS>MOLECULE
ASD01200367
  57   61    0    0    0
SMALL
NO_CHARGES


@<TRIPOS>ATOM
   1 C1            -0.2309     1.6771    -0.7405 C.ar    
   2 C2            -0.2514     0.3567    -1.0896 C.ar    
   3 C3             0.9308    -0.3571    -1.2448 C.ar    
   4 C4             2.1387     0.2478    -1.0511 C.ar    
   5 C5             2.1861     1.5999    -0.6934 C.ar    
   6 C6             0.9870     2.3215    -0.5367 C.ar    
   7 C7             3.2686     2.5380    -0.4150 C.2     
   8 N8             2.7328     3.6895    -0.1264 N.2     
   9 N9             1.3384     3.5999    -0.1902 N.pl3   
  10 C10            0.4033     4.6968     0.0723 C.3     
  11 C11            0.5988     5.2022     1.5031 C.3     
  12 C12            0.6627     5.8209    -0.8973 C.2     
  13 N13            0.0803     5.8104    -2.1127 N.am    
  14 O14            1.3956     6.7350    -0.5840 O.2     
  15 C15           -0.4712     6.2472     1.8255 C.3     
  16 C16           -2.9039     6.6154     2.2454 C.3     
  17 C17           -1.8498     5.5798     1.8451 C.3     
  18 C18           -0.1924     6.8582     3.2022 C.3     
  19 C19           -1.3104     7.8444     3.5501 C.3     
  20 O20           -2.5681     7.1665     3.5204 O.3     
  21 S21            3.6303    -0.6688    -1.2499 S.o2    
  22 O22            4.3574    -0.4182    -0.0550 O.2     
  23 O23            3.1944    -1.9802    -1.5809 O.2     
  24 C24            4.4520     0.1061    -2.6694 C.3     
  25 C25            5.7405    -0.5419    -3.1800 C.3     
  26 C26            4.4497    -0.6619    -3.9927 C.3     
  27 C27            0.3982     6.7925    -3.0447 C.2     
  28 S28           -0.2570     6.9215    -4.6222 S.3     
  29 N29            1.2369     7.7672    -2.8612 N.2     
  30 N30            1.4114     8.5773    -3.8137 N.2     
  31 C31            0.7298     8.3582    -4.8930 C.2     
  32 C32            0.7693     9.1850    -6.1524 C.3     
  33 H33           -1.1568     2.2214    -0.6272 H       
  34 H34           -1.1981    -0.1388    -1.2467 H       
  35 H35            0.8933    -1.4005    -1.5209 H       
  36 H36            4.3254     2.3169    -0.4429 H       
  37 H37           -0.6192     4.3398    -0.0505 H       
  38 H38            0.5123     4.3671     2.1984 H       
  39 H39            1.5868     5.6527     1.5975 H       
  40 H40           -0.5607     5.1178    -2.3374 H       
  41 H41           -0.4549     7.0312     1.0685 H       
  42 H42           -2.9323     7.4114     1.5014 H       
  43 H43           -3.8811     6.1360     2.3026 H       
  44 H44           -2.0801     5.1903     0.8534 H       
  45 H45           -1.8489     4.7631     2.5670 H       
  46 H46           -0.1580     6.0674     3.9515 H       
  47 H47            0.7627     7.3830     3.1811 H       
  48 H48           -1.1398     8.2504     4.5471 H       
  49 H49           -1.3180     8.6565     2.8231 H       
  50 H50            4.3817     1.1927    -2.7176 H       
  51 H51            6.5178     0.1184    -3.5646 H       
  52 H52            6.0945    -1.4338    -2.6630 H       
  53 H53            3.9545    -1.6328    -4.0103 H       
  54 H54            4.3779    -0.0805    -4.9119 H       
  55 H55            0.0198     9.9742    -6.0925 H       
  56 H56            1.7579     9.6305    -6.2637 H       
  57 H57            0.5588     8.5484    -7.0117 H       
@<TRIPOS>BOND
   1    1    2 ar
   2    1    6 ar
   3    1   33 1
   4    2    3 ar
   5    2   34 1
   6    3    4 ar
   7    3   35 1
   8    4    5 ar
   9    4   21 1
  10    5    7 1
  11    5    6 ar
  12    6    9 1
  13    7    8 2
  14    7   36 1
  15    8    9 1
  16    9   10 1
  17   10   11 1
  18   10   12 1
  19   10   37 1
  20   11   15 1
  21   11   38 1
  22   11   39 1
  23   12   13 am
  24   12   14 2
  25   13   27 1
  26   13   40 1
  27   15   18 1
  28   15   17 1
  29   15   41 1
  30   16   17 1
  31   16   20 1
  32   16   42 1
  33   16   43 1
  34   17   44 1
  35   17   45 1
  36   18   19 1
  37   18   46 1
  38   18   47 1
  39   19   20 1
  40   19   48 1
  41   19   49 1
  42   21   22 2
  43   21   23 2
  44   21   24 1
  45   24   25 1
  46   24   26 1
  47   24   50 1
  48   25   26 1
  49   25   51 1
  50   25   52 1
  51   26   53 1
  52   26   54 1
  53   27   29 2
  54   27   28 1
  55   28   31 1
  56   29   30 1
  57   30   31 2
  58   31   32 1
  59   32   55 1
  60   32   56 1
  61   32   57 1

#	End of record

