#	Name: ASD03430871
#	Creating user name:	WinNT
#	Creation time:	15. 06. 2019 20:41

#	Modifying user name:	WinNT
#	Modification time:	15. 06. 2019 20:41

#	Program:	/corina/corina34_cracker 3.40 0067  02.08.2006

@<TRIPOS>MOLECULE
ASD03430871
  35   39    0    0    0
SMALL
NO_CHARGES


@<TRIPOS>ATOM
   1 O1            -0.0161     1.3379     0.0094 O.3     
   2 C2             0.0021    -0.0041     0.0020 C.2     
   3 N3             1.2787    -0.4357    -0.0105 N.am    
   4 C4             2.1029     0.6900    -0.0104 C.ar    
   5 C5             1.2585     1.8005    -0.0003 C.ar    
   6 C6             3.4763     0.8599    -0.0150 C.ar    
   7 C7             4.0234     2.1383    -0.0138 C.ar    
   8 C8             3.1712     3.2407    -0.0167 C.ar    
   9 C9             1.8033     3.0744    -0.0041 C.ar    
  10 O10            5.3308     2.5254     0.0032 O.3     
  11 C11            4.0511     4.4618    -0.0487 C.3     
  12 C12            5.4259     3.8959    -0.4301 C.3     
  13 N13            3.3668     6.6215    -0.3522 N.am    
  14 C14            3.5721     5.4816    -1.0416 C.2     
  15 C15            4.0864     5.1763     1.2696 C.ar    
  16 C16            4.4330     4.7989     2.5473 C.ar    
  17 C17            4.3584     5.7121     3.5844 C.ar    
  18 C18            3.9347     7.0042     3.3342 C.ar    
  19 C19            3.5865     7.3878     2.0554 C.ar    
  20 C20            3.6593     6.4757     1.0059 C.ar    
  21 O21           -0.9811    -0.7197     0.0060 O.2     
  22 O22            3.4033     5.3126    -2.2307 O.2     
  23 C23            1.7204    -1.8324    -0.0222 C.3     
  24 H24            4.1254    -0.0032    -0.0192 H       
  25 H25            1.1551     3.9382     0.0031 H       
  26 H26            6.2206     4.4165     0.1042 H       
  27 H27            5.5819     3.9512    -1.5075 H       
  28 H28            3.0530     7.4473    -0.7527 H       
  29 H29            4.7632     3.7889     2.7406 H       
  30 H30            4.6301     5.4161     4.5869 H       
  31 H31            3.8757     7.7166     4.1437 H       
  32 H32            3.2562     8.3988     1.8679 H       
  33 H33            0.8502    -2.4888    -0.0197 H       
  34 H34            2.3133    -2.0185    -0.9178 H       
  35 H35            2.3265    -2.0292     0.8621 H       
@<TRIPOS>BOND
   1    1    2 1
   2    1    5 1
   3    2    3 am
   4    2   21 2
   5    3    4 1
   6    3   23 1
   7    4    5 ar
   8    4    6 ar
   9    5    9 ar
  10    6    7 ar
  11    6   24 1
  12    7    8 ar
  13    7   10 1
  14    8    9 ar
  15    8   11 1
  16    9   25 1
  17   10   12 1
  18   11   12 1
  19   11   14 1
  20   11   15 1
  21   12   26 1
  22   12   27 1
  23   13   14 am
  24   13   20 1
  25   13   28 1
  26   14   22 2
  27   15   16 ar
  28   15   20 ar
  29   16   17 ar
  30   16   29 1
  31   17   18 ar
  32   17   30 1
  33   18   19 ar
  34   18   31 1
  35   19   20 ar
  36   19   32 1
  37   23   33 1
  38   23   34 1
  39   23   35 1

#	End of record

