#	Name: ASD01180154
#	Creating user name:	WinNT
#	Creation time:	15. 06. 2019 19:06

#	Modifying user name:	WinNT
#	Modification time:	15. 06. 2019 19:06

#	Program:	/corina/corina34_cracker 3.40 0067  02.08.2006

@<TRIPOS>MOLECULE
ASD01180154
  38   38    0    0    0
SMALL
NO_CHARGES


@<TRIPOS>ATOM
   1 C1             0.3300     1.4357     0.6368 C.2     
   2 C2             0.2271    -0.0274     0.4605 C.ar    
   3 C3             1.3809    -0.7976     0.3023 C.ar    
   4 C4             1.2776    -2.1634     0.1386 C.ar    
   5 C5             0.0342    -2.7703     0.1305 C.ar    
   6 C6            -1.1134    -2.0130     0.2863 C.ar    
   7 C7            -1.0242    -0.6471     0.4571 C.ar    
   8 O8             1.4202     1.9713     0.6443 O.2     
   9 O9            -0.7855     2.1765     0.7836 O.3     
  10 C10           -0.0708    -4.2629    -0.0493 C.3     
  11 C11           -0.2796    -4.9272     1.3131 C.3     
  12 C12           -0.2681    -6.4480     1.1460 C.3     
  13 C13            1.1209    -6.9006     0.6913 C.3     
  14 C14           -0.6083    -7.1105     2.4825 C.3     
  15 N15           -1.2096    -4.5717    -0.9244 N.3     
  16 C16           -0.6088     3.6078     0.9523 C.3     
  17 C17           -1.9767     4.2764     1.1026 C.3     
  18 H18            2.3520    -0.3251     0.3077 H       
  19 H19            2.1693    -2.7603     0.0161 H       
  20 H20           -2.0808    -2.4930     0.2784 H       
  21 H21           -1.9204    -0.0578     0.5835 H       
  22 H22            0.8469    -4.6399    -0.5005 H       
  23 H23            0.5221    -4.6299     1.9890 H       
  24 H24           -1.2383    -4.6144     1.7267 H       
  25 H25           -1.0071    -6.7370     0.3987 H       
  26 H26            1.8599    -6.6116     1.4386 H       
  27 H27            1.1291    -7.9841     0.5723 H       
  28 H28            1.3632    -6.4286    -0.2608 H       
  29 H29           -1.6302    -6.8566     2.7642 H       
  30 H30           -0.5163    -8.1923     2.3856 H       
  31 H31            0.0792    -6.7547     3.2498 H       
  32 H32           -1.2360    -5.5548    -1.1499 H       
  33 H33           -2.0781    -4.2732    -0.5065 H       
  34 H34           -0.0117     3.7975     1.8442 H       
  35 H35           -0.0987     4.0162     0.0799 H       
  36 H36           -2.4869     3.8680     1.9750 H       
  37 H37           -1.8441     5.3508     1.2292 H       
  38 H38           -2.5738     4.0866     0.2107 H       
@<TRIPOS>BOND
   1    1    2 1
   2    1    8 2
   3    1    9 1
   4    2    3 ar
   5    2    7 ar
   6    3    4 ar
   7    3   18 1
   8    4    5 ar
   9    4   19 1
  10    5    6 ar
  11    5   10 1
  12    6    7 ar
  13    6   20 1
  14    7   21 1
  15    9   16 1
  16   10   11 1
  17   10   15 1
  18   10   22 1
  19   11   12 1
  20   11   23 1
  21   11   24 1
  22   12   13 1
  23   12   14 1
  24   12   25 1
  25   13   26 1
  26   13   27 1
  27   13   28 1
  28   14   29 1
  29   14   30 1
  30   14   31 1
  31   15   32 1
  32   15   33 1
  33   16   17 1
  34   16   34 1
  35   16   35 1
  36   17   36 1
  37   17   37 1
  38   17   38 1

#	End of record

