#	Name: ASD01881774
#	Creating user name:	WinNT
#	Creation time:	15. 06. 2019 19:43

#	Modifying user name:	WinNT
#	Modification time:	15. 06. 2019 19:43

#	Program:	/corina/corina34_cracker 3.40 0067  02.08.2006

@<TRIPOS>MOLECULE
ASD01881774
  35   35    0    0    0
SMALL
NO_CHARGES


@<TRIPOS>ATOM
   1 N1             0.0060     1.3442     0.5261 N.pl3   
   2 C2             0.0135    -0.0295     0.2592 C.ar    
   3 C3            -1.1853    -0.7157     0.1143 C.ar    
   4 C4            -1.1770    -2.0712    -0.1490 C.ar    
   5 C5             0.0282    -2.7476    -0.2684 C.ar    
   6 C6             1.2257    -2.0633    -0.1239 C.ar    
   7 C7             1.2193    -0.7061     0.1334 C.ar    
   8 N8            -2.4713     0.0056     0.2427 N.pl3   
   9 O9            -3.4212    -0.5342     0.7810 O.2     
  10 O10           -2.5796     1.1390    -0.1900 O.2     
  11 O11            0.0354    -4.0828    -0.5269 O.3     
  12 C12            1.3120    -4.7154    -0.6372 C.3     
  13 C13            1.2652     2.0925     0.5501 C.3     
  14 C14            0.9789     3.5627     0.8626 C.3     
  15 C15            0.2955     3.6703     2.2272 C.3     
  16 C16            2.2940     4.3442     0.8877 C.3     
  17 C17            0.0609     4.1436    -0.2148 C.3     
  18 H18           -0.8332     1.8016     0.6912 H       
  19 H19           -2.1091    -2.6049    -0.2617 H       
  20 H20            2.1635    -2.5907    -0.2171 H       
  21 H21            2.1520    -0.1724     0.2410 H       
  22 H22            1.1749    -5.7768    -0.8440 H       
  23 H23            1.8758    -4.2568    -1.4495 H       
  24 H24            1.8591    -4.5952     0.2979 H       
  25 H25            1.9192     1.6787     1.3177 H       
  26 H26            1.7521     2.0158    -0.4221 H       
  27 H27            0.9495     3.2565     2.9947 H       
  28 H28            0.0915     4.7177     2.4498 H       
  29 H29           -0.6414     3.1135     2.2093 H       
  30 H30            2.7808     4.2675    -0.0845 H       
  31 H31            2.0900     5.3916     1.1102 H       
  32 H32            2.9480     3.9304     1.6552 H       
  33 H33           -0.8760     3.5868    -0.2327 H       
  34 H34           -0.1431     5.1909     0.0078 H       
  35 H35            0.5477     4.0669    -1.1870 H       
@<TRIPOS>BOND
   1    1    2 1
   2    1   13 1
   3    1   18 1
   4    2    3 ar
   5    2    7 ar
   6    3    4 ar
   7    3    8 1
   8    4    5 ar
   9    4   19 1
  10    5    6 ar
  11    5   11 1
  12    6    7 ar
  13    6   20 1
  14    7   21 1
  15    8    9 2
  16    8   10 2
  17   11   12 1
  18   12   22 1
  19   12   23 1
  20   12   24 1
  21   13   14 1
  22   13   25 1
  23   13   26 1
  24   14   15 1
  25   14   16 1
  26   14   17 1
  27   15   27 1
  28   15   28 1
  29   15   29 1
  30   16   30 1
  31   16   31 1
  32   16   32 1
  33   17   33 1
  34   17   34 1
  35   17   35 1

#	End of record

