#	Name: ASD01901340
#	Creating user name:	WinNT
#	Creation time:	15. 06. 2019 19:53

#	Modifying user name:	WinNT
#	Modification time:	15. 06. 2019 19:53

#	Program:	/corina/corina34_cracker 3.40 0067  02.08.2006

@<TRIPOS>MOLECULE
ASD01901340
  37   40    0    0    0
SMALL
NO_CHARGES


@<TRIPOS>ATOM
   1 C1            -0.0169     1.3923     0.0097 C.ar    
   2 C2             1.1836     2.0791     0.0019 C.ar    
   3 N3             2.3343     1.4305    -0.0130 N.ar    
   4 C4             2.3931     0.1117    -0.0206 C.ar    
   5 C5             1.2434    -0.6486    -0.0133 C.ar    
   6 C6             0.0021    -0.0041     0.0020 C.ar    
   7 C7            -1.2605    -0.7829     0.0104 C.2     
   8 N8            -3.2458    -1.4124     1.1225 N.2     
   9 C9            -2.1318    -0.7225     1.1200 C.2     
  10 C10           -1.5997    -1.5651    -1.0586 C.2     
  11 N11           -2.7666    -2.2677    -1.0184 N.pl3   
  12 C12           -3.5835    -2.1870     0.0802 C.2     
  13 C13           -3.3683    -3.1168    -1.9081 C.2     
  14 C14           -4.5221    -3.5305    -1.3431 C.2     
  15 N15           -4.6373    -2.9597    -0.1401 N.2     
  16 C16           -5.5148    -4.4788    -1.9647 C.3     
  17 O17           -5.0479    -4.8789    -3.2546 O.3     
  18 C18           -5.8322    -5.7400    -3.9549 C.ar    
  19 C19           -7.0294    -6.1861    -3.4140 C.ar    
  20 C20           -5.4398    -6.1699    -5.2142 C.ar    
  21 C21           -6.2388    -7.0452    -5.9240 C.ar    
  22 C22           -7.4289    -7.4925    -5.3805 C.ar    
  23 C23           -7.8248    -7.0614    -4.1278 C.ar    
  24 F24            1.1794     3.4301     0.0092 F       
  25 H25           -0.9547     1.9277     0.0260 H       
  26 H26            3.3555    -0.3783    -0.0332 H       
  27 H27            1.3002    -1.7271    -0.0200 H       
  28 H28           -1.8789    -0.1057     1.9698 H       
  29 H29           -0.9530    -1.6248    -1.9215 H       
  30 H30           -2.9910    -3.4016    -2.8792 H       
  31 H31           -5.6247    -5.3577    -1.3294 H       
  32 H32           -6.4790    -3.9806    -2.0657 H       
  33 H33           -7.3390    -5.8496    -2.4356 H       
  34 H34           -4.5107    -5.8203    -5.6394 H       
  35 H35           -5.9338    -7.3802    -6.9044 H       
  36 H36           -8.0525    -8.1762    -5.9373 H       
  37 H37           -8.7568    -7.4089    -3.7072 H       
@<TRIPOS>BOND
   1    1    6 ar
   2    1    2 ar
   3    1   25 1
   4    2    3 ar
   5    2   24 1
   6    3    4 ar
   7    4    5 ar
   8    4   26 1
   9    5    6 ar
  10    5   27 1
  11    6    7 1
  12    7   10 2
  13    7    9 1
  14    8    9 2
  15    8   12 1
  16    9   28 1
  17   10   11 1
  18   10   29 1
  19   11   13 1
  20   11   12 1
  21   12   15 2
  22   13   14 2
  23   13   30 1
  24   14   15 1
  25   14   16 1
  26   16   17 1
  27   16   31 1
  28   16   32 1
  29   17   18 1
  30   18   20 ar
  31   18   19 ar
  32   19   23 ar
  33   19   33 1
  34   20   21 ar
  35   20   34 1
  36   21   22 ar
  37   21   35 1
  38   22   23 ar
  39   22   36 1
  40   23   37 1

#	End of record

