#	Name: ASD03331490
#	Creating user name:	WinNT
#	Creation time:	15. 06. 2019 20:39

#	Modifying user name:	WinNT
#	Modification time:	15. 06. 2019 20:39

#	Program:	/corina/corina34_cracker 3.40 0067  02.08.2006

@<TRIPOS>MOLECULE
ASD03331490
  52   54    0    0    0
SMALL
NO_CHARGES


@<TRIPOS>ATOM
   1 C1            -0.4657     1.3779    -0.9145 C.ar    
   2 C2            -0.4488    -0.0029    -0.9268 C.ar    
   3 C3            -1.1986    -0.7153     0.0101 C.ar    
   4 C4            -1.9615    -0.0281     0.9546 C.ar    
   5 C5            -1.9720     1.3516     0.9590 C.ar    
   6 C6            -1.2227     2.0558     0.0312 C.ar    
   7 C7            -1.1848    -2.1944     0.0016 C.2     
   8 N8            -2.2216    -3.0034     0.3890 N.pl3   
   9 C9            -1.8191    -4.2802     0.1850 C.2     
  10 C10           -0.5370    -4.2434    -0.2695 C.2     
  11 N11           -0.1815    -2.9449    -0.3829 N.2     
  12 C12           -3.4911    -2.5278     0.9511 C.3     
  13 C13           -4.6199    -3.5149     0.6531 C.3     
  14 C14           -4.6400    -4.6235     1.7168 C.3     
  15 N15           -3.3778    -5.3452     1.6804 N.am    
  16 C16           -2.6811    -5.4959     0.3969 C.3     
  17 C17            0.3072    -5.4070    -0.5859 C.2     
  18 O18           -0.1314    -6.5320    -0.4465 O.2     
  19 O19            1.5667    -5.2250    -1.0302 O.3     
  20 F20            0.2596     2.0697    -1.8203 F       
  21 F21           -1.2364     3.4067     0.0403 F       
  22 C22           -2.8555    -5.8674     2.8078 C.2     
  23 O23           -3.4398    -5.7369     3.8652 O.2     
  24 O24           -1.6864    -6.5336     2.7624 O.3     
  25 C25           -1.1837    -7.0689     4.0150 C.3     
  26 C26           -2.1987    -8.0585     4.5906 C.3     
  27 C27            0.1442    -7.7870     3.7662 C.3     
  28 C28           -0.9668    -5.9253     5.0079 C.3     
  29 C29           -5.9587    -2.7745     0.6654 C.3     
  30 H30            0.1431    -0.5303    -1.6602 H       
  31 H31           -2.5434    -0.5755     1.6812 H       
  32 H32           -2.5626     1.8835     1.6902 H       
  33 H33           -3.3866    -2.4176     2.0305 H       
  34 H34           -3.7365    -1.5597     0.5144 H       
  35 H35           -4.4623    -3.9590    -0.3298 H       
  36 H36           -4.7772    -4.1796     2.7028 H       
  37 H37           -5.4592    -5.3121     1.5096 H       
  38 H38           -3.4097    -5.5753    -0.4100 H       
  39 H39           -2.0575    -6.3896     0.4195 H       
  40 H40            2.0826    -6.0194    -1.2248 H       
  41 H41           -2.3532    -8.8733     3.8832 H       
  42 H42           -1.8213    -8.4604     5.5309 H       
  43 H43           -3.1447    -7.5469     4.7678 H       
  44 H44            0.8673    -7.0820     3.3562 H       
  45 H45            0.5216    -8.1889     4.7065 H       
  46 H46           -0.0103    -8.6018     3.0589 H       
  47 H47           -1.9129    -5.4136     5.1851 H       
  48 H48           -0.5894    -6.3271     5.9482 H       
  49 H49           -0.2437    -5.2202     4.5978 H       
  50 H50           -5.9487    -1.9929    -0.0943 H       
  51 H51           -6.7645    -3.4772     0.4530 H       
  52 H52           -6.1169    -2.3259     1.6461 H       
@<TRIPOS>BOND
   1    1    2 ar
   2    1   20 1
   3    1    6 ar
   4    2    3 ar
   5    2   30 1
   6    3    4 ar
   7    3    7 1
   8    4    5 ar
   9    4   31 1
  10    5    6 ar
  11    5   32 1
  12    6   21 1
  13    7    8 1
  14    7   11 2
  15    8    9 1
  16    8   12 1
  17    9   10 2
  18    9   16 1
  19   10   11 1
  20   10   17 1
  21   12   13 1
  22   12   33 1
  23   12   34 1
  24   13   14 1
  25   13   29 1
  26   13   35 1
  27   14   15 1
  28   14   36 1
  29   14   37 1
  30   15   16 1
  31   15   22 am
  32   16   38 1
  33   16   39 1
  34   17   18 2
  35   17   19 1
  36   19   40 1
  37   22   23 2
  38   22   24 1
  39   24   25 1
  40   25   26 1
  41   25   27 1
  42   25   28 1
  43   26   41 1
  44   26   42 1
  45   26   43 1
  46   27   44 1
  47   27   45 1
  48   27   46 1
  49   28   47 1
  50   28   48 1
  51   28   49 1
  52   29   50 1
  53   29   51 1
  54   29   52 1

#	End of record

