#	Name: ASD01900891
#	Creating user name:	WinNT
#	Creation time:	15. 06. 2019 19:52

#	Modifying user name:	WinNT
#	Modification time:	15. 06. 2019 19:52

#	Program:	/corina/corina34_cracker 3.40 0067  02.08.2006

@<TRIPOS>MOLECULE
ASD01900891
  37   39    0    0    0
SMALL
NO_CHARGES


@<TRIPOS>ATOM
   1 C1            -0.0167     1.3776     0.0096 C.ar    
   2 C2             0.0021    -0.0041     0.0020 C.ar    
   3 C3            -1.1851    -0.7123     0.0100 C.ar    
   4 C4            -2.3933    -0.0386     0.0256 C.ar    
   5 C5            -2.4139     1.3446     0.0332 C.ar    
   6 C6            -1.2252     2.0536     0.0306 C.ar    
   7 F7            -1.2439     3.4045     0.0385 F       
   8 C8             1.2780     2.1488     0.0014 C.3     
   9 S9             1.7812     2.4674    -1.7121 S.o2    
  10 C10            3.2907     3.3648    -1.5674 C.2     
  11 O11            2.1537     1.2565    -2.3557 O.2     
  12 O12            0.8878     3.3820    -2.3322 O.2     
  13 C13            4.5148     2.8360    -1.5133 C.2     
  14 N14            5.4897     3.7190    -1.4051 N.2     
  15 C15            5.1476     4.9689    -1.3651 C.2     
  16 S16            3.4480     5.1171    -1.4766 S.3     
  17 N17            6.0333     6.0329    -1.2538 N.am    
  18 C18            7.3588     5.8012    -1.1787 C.2     
  19 O19            7.7791     4.6613    -1.2085 O.2     
  20 C20            8.3034     6.9359    -1.0600 C.ar    
  21 N21            7.8384     8.1787    -1.0279 N.ar    
  22 C22            8.6429     9.2139    -0.9229 C.ar    
  23 C23           10.0155     9.0430    -0.8412 C.ar    
  24 C24           10.5439     7.7617    -0.8710 C.ar    
  25 C25            9.6723     6.6895    -0.9770 C.ar    
  26 Cl26          -3.8836    -0.9290     0.0351 Cl      
  27 H27            0.9447    -0.5310    -0.0105 H       
  28 H28           -1.1694    -1.7922     0.0037 H       
  29 H29           -3.3569     1.8709     0.0454 H       
  30 H30            1.1397     3.0966     0.5217 H       
  31 H31            2.0505     1.5673     0.5048 H       
  32 H32            4.6933     1.7717    -1.5548 H       
  33 H33            5.6978     6.9427    -1.2300 H       
  34 H34            8.2280    10.2107    -0.9003 H       
  35 H35           10.6674     9.8998    -0.7556 H       
  36 H36           11.6103     7.6025    -0.8093 H       
  37 H37           10.0492     5.6778    -1.0030 H       
@<TRIPOS>BOND
   1    1    2 ar
   2    1    8 1
   3    1    6 ar
   4    2    3 ar
   5    2   27 1
   6    3    4 ar
   7    3   28 1
   8    4    5 ar
   9    4   26 1
  10    5    6 ar
  11    5   29 1
  12    6    7 1
  13    8    9 1
  14    8   30 1
  15    8   31 1
  16    9   10 1
  17    9   11 2
  18    9   12 2
  19   10   13 2
  20   10   16 1
  21   13   14 1
  22   13   32 1
  23   14   15 2
  24   15   16 1
  25   15   17 1
  26   17   18 am
  27   17   33 1
  28   18   19 2
  29   18   20 1
  30   20   21 ar
  31   20   25 ar
  32   21   22 ar
  33   22   23 ar
  34   22   34 1
  35   23   24 ar
  36   23   35 1
  37   24   25 ar
  38   24   36 1
  39   25   37 1

#	End of record

