#	Name: ASD00431245
#	Creating user name:	WinNT
#	Creation time:	15. 06. 2019 18:35

#	Modifying user name:	WinNT
#	Modification time:	15. 06. 2019 18:35

#	Program:	/corina/corina34_cracker 3.40 0067  02.08.2006

@<TRIPOS>MOLECULE
ASD00431245
  35   37    0    0    0
SMALL
NO_CHARGES


@<TRIPOS>ATOM
   1 S1            -4.7351     2.8135     3.3066 S.3     
   2 C2            -5.1445     1.1525     3.7275 C.2     
   3 N3            -5.4900     1.1050     4.9851 N.2     
   4 C4            -5.4665     2.2376     5.6521 C.2     
   5 C5            -5.0884     3.3148     4.9589 C.2     
   6 S6            -4.6409     0.0512     1.1100 S.3     
   7 C7            -4.9079    -1.6322     0.9789 C.2     
   8 N8            -5.2995    -2.1168     2.1170 N.2     
   9 C9            -5.4166    -1.2741     3.1193 C.2     
  10 C10           -5.1042     0.0043     2.8092 C.2     
  11 O11           -4.7351    -2.3569    -0.1520 O.3     
  12 C12           -4.8903    -3.7055    -0.0759 C.ar    
  13 C13           -6.1419    -4.2464     0.1801 C.ar    
  14 C14           -6.2995    -5.6164     0.2570 C.ar    
  15 C15           -5.2064    -6.4514     0.0786 C.ar    
  16 C16           -3.9548    -5.9107    -0.1769 C.ar    
  17 C17           -3.7982    -4.5409    -0.2599 C.ar    
  18 O18           -5.3615    -7.8001     0.1548 O.3     
  19 C19           -4.2106    -8.6020    -0.1178 C.3     
  20 C20           -4.3784    -9.9744     0.5373 C.3     
  21 C21           -4.0555    -8.7742    -1.6301 C.3     
  22 H22           -5.7367     2.2936     6.6962 H       
  23 H23           -5.0119     4.3206     5.3448 H       
  24 H24           -5.7356    -1.5769     4.1057 H       
  25 H25           -6.9929    -3.5963     0.3197 H       
  26 H26           -7.2739    -6.0375     0.4563 H       
  27 H27           -3.1036    -6.5609    -0.3150 H       
  28 H28           -2.8246    -4.1201    -0.4636 H       
  29 H29           -3.3235    -8.1132     0.2851 H       
  30 H30           -5.2655   -10.4633     0.1344 H       
  31 H31           -3.5005   -10.5861     0.3294 H       
  32 H32           -4.4889    -9.8517     1.6147 H       
  33 H33           -3.1776    -9.3859    -1.8380 H       
  34 H34           -4.9426    -9.2631    -2.0330 H       
  35 H35           -3.9359    -7.7965    -2.0968 H       
@<TRIPOS>BOND
   1    1    2 1
   2    1    5 1
   3    2    3 2
   4    2   10 1
   5    3    4 1
   6    4    5 2
   7    4   22 1
   8    5   23 1
   9    6    7 1
  10    6   10 1
  11    7    8 2
  12    7   11 1
  13    8    9 1
  14    9   10 2
  15    9   24 1
  16   11   12 1
  17   12   13 ar
  18   12   17 ar
  19   13   14 ar
  20   13   25 1
  21   14   15 ar
  22   14   26 1
  23   15   16 ar
  24   15   18 1
  25   16   17 ar
  26   16   27 1
  27   17   28 1
  28   18   19 1
  29   19   20 1
  30   19   21 1
  31   19   29 1
  32   20   30 1
  33   20   31 1
  34   20   32 1
  35   21   33 1
  36   21   34 1
  37   21   35 1

#	End of record

