#	Name: ASD03092026
#	Creating user name:	WinNT
#	Creation time:	15. 06. 2019 20:31

#	Modifying user name:	WinNT
#	Modification time:	15. 06. 2019 20:31

#	Program:	/corina/corina34_cracker 3.40 0067  02.08.2006

@<TRIPOS>MOLECULE
ASD03092026
  40   42    0    0    0
SMALL
NO_CHARGES


@<TRIPOS>ATOM
   1 N1            -0.0208     1.4996    -0.2220 N.pl3   
   2 C2             0.0433     0.1382    -0.2642 C.2     
   3 C3            -1.2358    -0.3342    -0.1844 C.2     
   4 C4            -2.0944     0.7683    -0.0917 C.2     
   5 N5            -1.3687     1.8626    -0.1080 N.2     
   6 C6             1.1184     2.4190    -0.2793 C.3     
   7 C7             1.2641     2.9624    -1.7021 C.3     
   8 N8            -3.4900     0.7130     0.0073 N.pl3   
   9 C9            -4.2272     1.8911     0.1617 C.ar    
  10 C10           -3.7576     3.0809    -0.3789 C.ar    
  11 C11           -4.4888     4.2449    -0.2246 C.ar    
  12 C12           -5.6890     4.2231     0.4696 C.ar    
  13 C13           -6.1573     3.0372     1.0086 C.ar    
  14 C14           -5.4330     1.8717     0.8513 C.ar    
  15 F15           -4.0333     5.4032    -0.7500 F       
  16 C16            1.2721    -0.6771    -0.3765 C.ar    
  17 C17            1.1934    -2.0656    -0.2701 C.ar    
  18 C18            2.3520    -2.8147    -0.3779 C.ar    
  19 C19            3.5528    -2.1516    -0.5887 C.ar    
  20 C20            3.5587    -0.7720    -0.6845 C.ar    
  21 N21            2.4413    -0.0819    -0.5834 N.ar    
  22 F22           -6.4019     5.3607     0.6204 F       
  23 C23            2.3107    -4.3172    -0.2683 C.3     
  24 O24            0.9008     3.5040     0.6250 O.3     
  25 H25           -1.5322    -1.3727    -0.1915 H       
  26 H26            2.0280     1.8885     0.0020 H       
  27 H27            0.3544     3.4930    -1.9834 H       
  28 H28            2.1116     3.6465    -1.7447 H       
  29 H29            1.4301     2.1349    -2.3918 H       
  30 H30           -3.9454    -0.1425    -0.0313 H       
  31 H31           -2.8224     3.0975    -0.9188 H       
  32 H32           -7.0922     3.0225     1.5492 H       
  33 H33           -5.7995     0.9471     1.2723 H       
  34 H34            0.2419    -2.5492    -0.1056 H       
  35 H35            4.4743    -2.7079    -0.6768 H       
  36 H36            4.4919    -0.2536    -0.8485 H       
  37 H37            2.1609    -4.7496    -1.2575 H       
  38 H38            3.2521    -4.6772     0.1468 H       
  39 H39            1.4894    -4.6114     0.3851 H       
  40 H40            0.1065     4.0215     0.4345 H       
@<TRIPOS>BOND
   1    1    2 1
   2    1    6 1
   3    1    5 1
   4    2    3 2
   5    2   16 1
   6    3    4 1
   7    3   25 1
   8    4    5 2
   9    4    8 1
  10    6    7 1
  11    6   24 1
  12    6   26 1
  13    7   27 1
  14    7   28 1
  15    7   29 1
  16    8    9 1
  17    8   30 1
  18    9   10 ar
  19    9   14 ar
  20   10   11 ar
  21   10   31 1
  22   11   12 ar
  23   11   15 1
  24   12   13 ar
  25   12   22 1
  26   13   14 ar
  27   13   32 1
  28   14   33 1
  29   16   17 ar
  30   16   21 ar
  31   17   18 ar
  32   17   34 1
  33   18   19 ar
  34   18   23 1
  35   19   20 ar
  36   19   35 1
  37   20   21 ar
  38   20   36 1
  39   23   37 1
  40   23   38 1
  41   23   39 1
  42   24   40 1

#	End of record

