#	Name: ASD01150783
#	Creating user name:	WinNT
#	Creation time:	15. 06. 2019 19:05

#	Modifying user name:	WinNT
#	Modification time:	15. 06. 2019 19:05

#	Program:	/corina/corina34_cracker 3.40 0067  02.08.2006

@<TRIPOS>MOLECULE
ASD01150783
  39   42    0    0    0
SMALL
NO_CHARGES


@<TRIPOS>ATOM
   1 C1             0.8169     3.0059     0.1157 C.2     
   2 O2             1.1072     3.4472     1.2016 O.2     
   3 C3             1.2299     1.6073    -0.2643 C.3     
   4 C4             0.1202     0.6122    -0.6095 C.3     
   5 C5             1.0131     1.1766    -1.7163 C.3     
   6 N6             4.8014     0.9288     0.5671 N.ar    
   7 C7             3.7196     1.3750    -0.0250 C.ar    
   8 C8             2.4470     1.0734     0.4460 C.ar    
   9 C9             2.3037     0.2780     1.5749 C.ar    
  10 C10            3.4826    -0.1968     2.2039 C.ar    
  11 C11            3.4242    -1.0047     3.3465 C.ar    
  12 C12            4.5802    -1.4421     3.9227 C.ar    
  13 C13            5.8195    -1.0946     3.3886 C.ar    
  14 C14            5.9107    -0.3107     2.2796 C.ar    
  15 C15            4.7400     0.1580     1.6581 C.ar    
  16 C16            0.9635    -0.0632     2.1050 C.ar    
  17 C17            0.5238    -1.3869     2.0981 C.ar    
  18 C18           -0.7258    -1.6983     2.5933 C.ar    
  19 C19           -1.5421    -0.7009     3.0960 C.ar    
  20 C20           -1.1117     0.6139     3.1055 C.ar    
  21 C21            0.1381     0.9372     2.6184 C.ar    
  22 C22            3.8602     2.2396    -1.2513 C.3     
  23 Br23           4.5005    -2.5328     5.4654 Br      
  24 H24            0.2574     3.6119    -0.5815 H       
  25 H25            0.2707    -0.4287    -0.3232 H       
  26 H26           -0.9086     0.9691    -0.5618 H       
  27 H27            0.5718     1.9048    -2.3968 H       
  28 H28            1.7510     0.5070    -2.1582 H       
  29 H29            2.4690    -1.2794     3.7691 H       
  30 H30            6.7217    -1.4526     3.8623 H       
  31 H31            6.8789    -0.0501     1.8783 H       
  32 H32            1.1600    -2.1663     1.7056 H       
  33 H33           -1.0675    -2.7228     2.5881 H       
  34 H34           -2.5196    -0.9496     3.4822 H       
  35 H35           -1.7536     1.3882     3.4989 H       
  36 H36            0.4750     1.9632     2.6308 H       
  37 H37            3.7767     1.6200    -2.1442 H       
  38 H38            3.0725     2.9930    -1.2569 H       
  39 H39            4.8330     2.7311    -1.2398 H       
@<TRIPOS>BOND
   1    1    2 2
   2    1    3 1
   3    1   24 1
   4    3    4 1
   5    3    5 1
   6    3    8 1
   7    4    5 1
   8    4   25 1
   9    4   26 1
  10    5   27 1
  11    5   28 1
  12    6    7 ar
  13    6   15 ar
  14    7    8 ar
  15    7   22 1
  16    8    9 ar
  17    9   10 ar
  18    9   16 1
  19   10   11 ar
  20   10   15 ar
  21   11   12 ar
  22   11   29 1
  23   12   13 ar
  24   12   23 1
  25   13   14 ar
  26   13   30 1
  27   14   15 ar
  28   14   31 1
  29   16   17 ar
  30   16   21 ar
  31   17   18 ar
  32   17   32 1
  33   18   19 ar
  34   18   33 1
  35   19   20 ar
  36   19   34 1
  37   20   21 ar
  38   20   35 1
  39   21   36 1
  40   22   37 1
  41   22   38 1
  42   22   39 1

#	End of record

