#	Name: ASD01903320
#	Creating user name:	WinNT
#	Creation time:	15. 06. 2019 19:54

#	Modifying user name:	WinNT
#	Modification time:	15. 06. 2019 19:54

#	Program:	/corina/corina34_cracker 3.40 0067  02.08.2006

@<TRIPOS>MOLECULE
ASD01903320
  31   34    0    0    0
SMALL
NO_CHARGES


@<TRIPOS>ATOM
   1 N1            -0.0111     0.9658     0.0074 N.pl3   
   2 H2             0.0021    -0.0041     0.0020 H       
   3 C3             1.1793     1.6749    -0.0002 C.2     
   4 C4            -1.2896     1.6810     0.0173 C.3     
   5 S5             2.7354     0.9670    -0.0189 S.3     
   6 C6             3.4798     2.5556    -0.0106 C.2     
   7 C7             2.4829     3.4896    -0.0077 C.2     
   8 N8             1.2692     2.9678     0.0003 N.2     
   9 C9             4.9467     2.8918     0.0058 C.3     
  10 C10            5.2263     4.2107    -0.7167 C.3     
  11 C11            4.1921     5.2451    -0.3664 C.2     
  12 C12            2.8926     4.9245    -0.0421 C.2     
  13 N13            4.2928     6.5795    -0.3009 N.pl3   
  14 N14            3.0365     7.0985     0.0521 N.2     
  15 C15            2.1977     6.0995     0.2051 C.2     
  16 C16           -2.4535     0.8705    -0.5771 C.3     
  17 C17           -3.3248     1.4403     0.5547 C.3     
  18 C18           -2.0277     1.6046     1.3642 C.3     
  19 H19           -1.2123     2.6919    -0.3830 H       
  20 H20            5.2821     2.9737     1.0396 H       
  21 H21            5.5012     2.0920    -0.4852 H       
  22 H22            6.2113     4.5764    -0.4264 H       
  23 H23            5.2116     4.0396    -1.7931 H       
  24 H24            5.0955     7.0979    -0.4680 H       
  25 H25            1.1548     6.1785     0.4742 H       
  26 H26           -2.7551     1.2034    -1.5702 H       
  27 H27           -2.3099    -0.2083    -0.5167 H       
  28 H28           -3.8048     2.3859     0.3024 H       
  29 H29           -4.0166     0.7139     0.9811 H       
  30 H30           -1.7678     0.7265     1.9554 H       
  31 H31           -1.9856     2.5302     1.9383 H       
@<TRIPOS>BOND
   1    1    2 1
   2    1    3 1
   3    1    4 1
   4    3    5 1
   5    3    8 2
   6    4   16 1
   7    4   18 1
   8    4   19 1
   9    5    6 1
  10    6    7 2
  11    6    9 1
  12    7    8 1
  13    7   12 1
  14    9   10 1
  15    9   20 1
  16    9   21 1
  17   10   11 1
  18   10   22 1
  19   10   23 1
  20   11   12 2
  21   11   13 1
  22   12   15 1
  23   13   14 1
  24   13   24 1
  25   14   15 2
  26   15   25 1
  27   16   17 1
  28   16   26 1
  29   16   27 1
  30   17   18 1
  31   17   28 1
  32   17   29 1
  33   18   30 1
  34   18   31 1

#	End of record

