#	Name: ASD02038982
#	Creating user name:	WinNT
#	Creation time:	15. 06. 2019 20:17

#	Modifying user name:	WinNT
#	Modification time:	15. 06. 2019 20:17

#	Program:	/corina/corina34_cracker 3.40 0067  02.08.2006

@<TRIPOS>MOLECULE
ASD02038982
  35   37    0    0    0
SMALL
NO_CHARGES


@<TRIPOS>ATOM
   1 O1            -0.0046     1.3336     0.1125 O.3     
   2 C2            -0.0066     0.0021    -0.0848 C.2     
   3 N3             1.2210    -0.3488    -0.3814 N.2     
   4 N4             1.9746     0.6939    -0.3766 N.2     
   5 C5             1.2646     1.7427    -0.0795 C.2     
   6 N6            -1.1006    -0.8396     0.0085 N.pl3   
   7 C7            -0.9304    -2.2228    -0.1062 C.ar    
   8 C8             0.2654    -2.8114     0.2850 C.ar    
   9 C9             0.4306    -4.1786     0.1710 C.ar    
  10 C10           -0.5953    -4.9613    -0.3329 C.ar    
  11 C11           -1.7867    -4.3766    -0.7234 C.ar    
  12 C12           -1.9588    -3.0111    -0.6060 C.ar    
  13 Cl13          -0.3853    -6.6787    -0.4751 Cl      
  14 Cl14           1.9247    -4.9157     0.6589 Cl      
  15 C15            1.7698     3.1583     0.0293 C.3     
  16 O16            1.6694     3.7991    -1.2441 O.3     
  17 C17            2.0870     5.0912    -1.3197 C.ar    
  18 C18            2.0171     5.7727    -2.5257 C.ar    
  19 C19            2.4409     7.0849    -2.6034 C.ar    
  20 C20            2.9368     7.7219    -1.4736 C.ar    
  21 C21            3.0060     7.0390    -0.2665 C.ar    
  22 C22            2.5772     5.7284    -0.1895 C.ar    
  23 N23            3.3669     9.0513    -1.5515 N.pl3   
  24 H24           -1.9857    -0.4702     0.1534 H       
  25 H25            1.0654    -2.2011     0.6775 H       
  26 H26           -2.5847    -4.9891    -1.1166 H       
  27 H27           -2.8911    -2.5562    -0.9066 H       
  28 H28            1.1702     3.7031     0.7585 H       
  29 H29            2.8115     3.1486     0.3500 H       
  30 H30            1.6314     5.2771    -3.4043 H       
  31 H31            2.3871     7.6152    -3.5427 H       
  32 H32            3.3916     7.5337     0.6127 H       
  33 H33            2.6272     5.1984     0.7502 H       
  34 H34            3.3188     9.5280    -2.3949 H       
  35 H35            3.7133     9.4961    -0.7621 H       
@<TRIPOS>BOND
   1    1    2 1
   2    1    5 1
   3    2    3 2
   4    2    6 1
   5    3    4 1
   6    4    5 2
   7    5   15 1
   8    6    7 1
   9    6   24 1
  10    7    8 ar
  11    7   12 ar
  12    8    9 ar
  13    8   25 1
  14    9   10 ar
  15    9   14 1
  16   10   11 ar
  17   10   13 1
  18   11   12 ar
  19   11   26 1
  20   12   27 1
  21   15   16 1
  22   15   28 1
  23   15   29 1
  24   16   17 1
  25   17   18 ar
  26   17   22 ar
  27   18   19 ar
  28   18   30 1
  29   19   20 ar
  30   19   31 1
  31   20   21 ar
  32   20   23 1
  33   21   22 ar
  34   21   32 1
  35   22   33 1
  36   23   34 1
  37   23   35 1

#	End of record

