#	Name: ASD04880406
#	Creating user name:	WinNT
#	Creation time:	15. 06. 2019 20:53

#	Modifying user name:	WinNT
#	Modification time:	15. 06. 2019 20:53

#	Program:	/corina/corina34_cracker 3.40 0067  02.08.2006

@<TRIPOS>MOLECULE
ASD04880406
  58   61    0    0    0
SMALL
NO_CHARGES


@<TRIPOS>ATOM
   1 C1            -0.0127     1.3971    -0.1773 C.ar    
   2 C2             0.0084     0.0041    -0.1912 C.ar    
   3 C3            -1.1795    -0.7116    -0.1527 C.ar    
   4 C4            -2.3869    -0.0477    -0.1004 C.ar    
   5 C5            -2.4158     1.3492    -0.0856 C.ar    
   6 C6            -1.2189     2.0696    -0.1187 C.ar    
   7 O7             1.1538     2.0951    -0.2157 O.3     
   8 O8             1.1959    -0.6554    -0.2432 O.3     
   9 C9             1.1448    -2.0835    -0.2547 C.3     
  10 C10            1.0575     3.5208    -0.1985 C.3     
  11 C11           -3.7054     2.0611    -0.0302 C.2     
  12 C12           -5.0651     1.4012     0.0144 C.3     
  13 N13           -3.8475     3.3417    -0.0067 N.2     
  14 N14           -5.1736     3.7663     0.0466 N.am    
  15 C15           -6.0511     2.5852     0.0640 C.3     
  16 C16           -6.9662     2.5762    -1.1622 C.3     
  17 C17           -6.8749     2.5454     1.3526 C.3     
  18 C18           -5.5851     5.0493     0.0797 C.2     
  19 O19           -6.7714     5.3090     0.0168 O.2     
  20 C20           -4.5946     6.1404     0.1924 C.ar    
  21 C21           -5.0042     7.4713     0.0933 C.ar    
  22 C22           -4.0767     8.4877     0.1995 C.ar    
  23 C23           -2.7417     8.1927     0.4036 C.ar    
  24 C24           -2.3245     6.8717     0.5030 C.ar    
  25 C25           -3.2475     5.8442     0.4041 C.ar    
  26 O26           -1.0107     6.5876     0.7031 O.3     
  27 C27           -0.1271     7.6199     0.6994 C.ar    
  28 C28           -0.0485     8.4714     1.7921 C.ar    
  29 C29            0.8511     9.5197     1.7860 C.ar    
  30 C30            1.6727     9.7209     0.6922 C.ar    
  31 C31            1.5964     8.8738    -0.3980 C.ar    
  32 C32            0.7023     7.8208    -0.3947 C.ar    
  33 H33           -1.1585    -1.7913    -0.1640 H       
  34 H34           -3.3102    -0.6073    -0.0711 H       
  35 H35           -1.2366     3.1494    -0.1075 H       
  36 H36            0.5845    -2.4200    -1.1270 H       
  37 H37            2.1581    -2.4829    -0.2975 H       
  38 H38            0.6530    -2.4368     0.6516 H       
  39 H39            0.4865     3.8568    -1.0640 H       
  40 H40            0.5551     3.8401     0.7145 H       
  41 H41            2.0576     3.9529    -0.2330 H       
  42 H42           -5.2298     0.8038    -0.8823 H       
  43 H43           -5.1620     0.7853     0.9084 H       
  44 H44           -6.3599     2.5785    -2.0680 H       
  45 H45           -7.5891     1.6819    -1.1442 H       
  46 H46           -7.6014     3.4618    -1.1479 H       
  47 H47           -7.5088     3.4305     1.4061 H       
  48 H48           -7.4983     1.6513     1.3579 H       
  49 H49           -6.2046     2.5261     2.2119 H       
  50 H50           -6.0463     7.7054    -0.0667 H       
  51 H51           -4.3949     9.5169     0.1227 H       
  52 H52           -2.0204     8.9923     0.4855 H       
  53 H53           -2.9245     4.8165     0.4813 H       
  54 H54           -0.6902     8.3149     2.6465 H       
  55 H55            0.9124    10.1830     2.6361 H       
  56 H56            2.3751    10.5413     0.6893 H       
  57 H57            2.2393     9.0331    -1.2510 H       
  58 H58            0.6433     7.1592    -1.2463 H       
@<TRIPOS>BOND
   1    1    2 ar
   2    1    7 1
   3    1    6 ar
   4    2    3 ar
   5    2    8 1
   6    3    4 ar
   7    3   33 1
   8    4    5 ar
   9    4   34 1
  10    5    6 ar
  11    5   11 1
  12    6   35 1
  13    7   10 1
  14    8    9 1
  15    9   36 1
  16    9   37 1
  17    9   38 1
  18   10   39 1
  19   10   40 1
  20   10   41 1
  21   11   12 1
  22   11   13 2
  23   12   15 1
  24   12   42 1
  25   12   43 1
  26   13   14 1
  27   14   15 1
  28   14   18 am
  29   15   16 1
  30   15   17 1
  31   16   44 1
  32   16   45 1
  33   16   46 1
  34   17   47 1
  35   17   48 1
  36   17   49 1
  37   18   19 2
  38   18   20 1
  39   20   21 ar
  40   20   25 ar
  41   21   22 ar
  42   21   50 1
  43   22   23 ar
  44   22   51 1
  45   23   24 ar
  46   23   52 1
  47   24   25 ar
  48   24   26 1
  49   25   53 1
  50   26   27 1
  51   27   28 ar
  52   27   32 ar
  53   28   29 ar
  54   28   54 1
  55   29   30 ar
  56   29   55 1
  57   30   31 ar
  58   30   56 1
  59   31   32 ar
  60   31   57 1
  61   32   58 1

#	End of record

