#	Name: ASD05130062
#	Creating user name:	WinNT
#	Creation time:	15. 06. 2019 20:56

#	Modifying user name:	WinNT
#	Modification time:	15. 06. 2019 20:56

#	Program:	/corina/corina34_cracker 3.40 0067  02.08.2006

@<TRIPOS>MOLECULE
ASD05130062
  57   60    0    0    0
SMALL
NO_CHARGES


@<TRIPOS>ATOM
   1 N1             0.0624     1.2259     0.0436 N.am    
   2 C2             0.0644     0.0365     0.6775 C.2     
   3 O3             1.1058    -0.4224     1.1058 O.2     
   4 N4            -1.0879    -0.6442     0.8366 N.am    
   5 C5            -1.0701    -1.9324     1.3863 C.ar    
   6 C6            -2.2024    -2.4368     2.0172 C.ar    
   7 C7            -2.1805    -3.7088     2.5585 C.ar    
   8 C8            -1.0343    -4.4782     2.4730 C.ar    
   9 C9             0.0923    -3.9786     1.8468 C.ar    
  10 C10            0.0754    -2.7105     1.2978 C.ar    
  11 F11           -3.3216    -1.6848     2.1013 F       
  12 C12            1.2429     1.9748    -0.0441 C.ar    
  13 C13            1.1809     3.3576    -0.1897 C.ar    
  14 C14            2.3451     4.1002    -0.2770 C.ar    
  15 C15            3.5740     3.4736    -0.2203 C.ar    
  16 C16            3.6449     2.0886    -0.0745 C.ar    
  17 C17            2.4725     1.3400     0.0198 C.ar    
  18 C18            4.8393     4.2865    -0.3163 C.3     
  19 F19           -0.0188     3.9761    -0.2463 F       
  20 N20            6.6779     0.3044     1.3184 N.am    
  21 C21            5.4796     0.9181     1.2630 C.2     
  22 C22            4.9631     1.4146    -0.0144 C.2     
  23 C23            5.7056     1.2516    -1.1521 C.2     
  24 C24            6.9611     0.6043    -1.0680 C.ar    
  25 C25            7.7543     0.4165    -2.2067 C.ar    
  26 N26            8.9188    -0.1872    -2.1112 N.ar    
  27 C27            9.3895    -0.6385    -0.9534 C.ar    
  28 C28            8.6686    -0.4936     0.2234 C.ar    
  29 C29            7.4308     0.1370     0.1790 C.ar    
  30 O30            4.8230     1.0599     2.2792 O.2     
  31 N31           10.6257    -1.2672    -0.9205 N.pl3   
  32 C32           11.1582    -1.7702     0.3482 C.3     
  33 C33            7.1860    -0.1828     2.6032 C.3     
  34 C34            6.7220    -1.6243     2.8216 C.3     
  35 H35           -0.7556     1.5614    -0.3555 H       
  36 H36           -1.9295    -0.2421     0.5705 H       
  37 H37           -3.0589    -4.1019     3.0487 H       
  38 H38           -1.0192    -5.4714     2.8968 H       
  39 H39            0.9857    -4.5820     1.7827 H       
  40 H40            0.9547    -2.3236     0.8043 H       
  41 H41            2.2924     5.1730    -0.3903 H       
  42 H42            2.5228     0.2676     0.1376 H       
  43 H43            5.1523     4.5908     0.6824 H       
  44 H44            5.6237     3.6849    -0.7754 H       
  45 H45            4.6569     5.1719    -0.9254 H       
  46 H46            5.3382     1.6119    -2.1016 H       
  47 H47            7.4082     0.7685    -3.1672 H       
  48 H48            9.0625    -0.8649     1.1580 H       
  49 H49           11.1374    -1.3738    -1.7376 H       
  50 H50           11.2644    -0.9436     1.0508 H       
  51 H51           10.4744    -2.5121     0.7606 H       
  52 H52           12.1320    -2.2290     0.1771 H       
  53 H53            8.2755    -0.1484     2.5997 H       
  54 H54            6.8052     0.4472     3.4070 H       
  55 H55            7.1029    -2.2544     2.0177 H       
  56 H56            7.1001    -1.9869     3.7775 H       
  57 H57            5.6326    -1.6588     2.8251 H       
@<TRIPOS>BOND
   1    1    2 am
   2    1   12 1
   3    1   35 1
   4    2    3 2
   5    2    4 am
   6    4    5 1
   7    4   36 1
   8    5    6 ar
   9    5   10 ar
  10    6    7 ar
  11    6   11 1
  12    7    8 ar
  13    7   37 1
  14    8    9 ar
  15    8   38 1
  16    9   10 ar
  17    9   39 1
  18   10   40 1
  19   12   13 ar
  20   12   17 ar
  21   13   14 ar
  22   13   19 1
  23   14   15 ar
  24   14   41 1
  25   15   16 ar
  26   15   18 1
  27   16   17 ar
  28   16   22 1
  29   17   42 1
  30   18   43 1
  31   18   44 1
  32   18   45 1
  33   20   21 am
  34   20   29 1
  35   20   33 1
  36   21   22 1
  37   21   30 2
  38   22   23 2
  39   23   24 1
  40   23   46 1
  41   24   25 ar
  42   24   29 ar
  43   25   26 ar
  44   25   47 1
  45   26   27 ar
  46   27   28 ar
  47   27   31 1
  48   28   29 ar
  49   28   48 1
  50   31   32 1
  51   31   49 1
  52   32   50 1
  53   32   51 1
  54   32   52 1
  55   33   34 1
  56   33   53 1
  57   33   54 1
  58   34   55 1
  59   34   56 1
  60   34   57 1

#	End of record

