#	Name: ASD01140579
#	Creating user name:	WinNT
#	Creation time:	15. 06. 2019 19:01

#	Modifying user name:	WinNT
#	Modification time:	15. 06. 2019 19:01

#	Program:	/corina/corina34_cracker 3.40 0067  02.08.2006

@<TRIPOS>MOLECULE
ASD01140579
  44   47    0    0    0
SMALL
NO_CHARGES


@<TRIPOS>ATOM
   1 O1            -1.5526    -5.4578    -2.2535 O.2     
   2 O2             0.4669     0.5203    -1.1495 O.3     
   3 O3            -5.2095    -7.3046     0.6450 O.3     
   4 O4             0.6272     0.1451     1.0337 O.2     
   5 N5            -0.4696    -4.0532    -0.9785 N.am    
   6 N6            -2.7244    -2.3872     0.0814 N.pl3   
   7 N7            -2.5141    -0.2310    -0.0597 N.2     
   8 C8            -0.2987    -3.1364     0.1610 C.3     
   9 C9             1.0748    -2.4576     0.0028 C.3     
  10 C10            1.8649    -3.4898    -0.8461 C.3     
  11 C11            0.7619    -4.0257    -1.7910 C.3     
  12 C12           -1.3951    -2.1085     0.0891 C.2     
  13 C13           -1.5650    -4.7695    -1.2513 C.2     
  14 C14           -3.3167    -3.6487     0.1745 C.ar    
  15 C15           -2.7826    -4.7860    -0.4299 C.ar    
  16 C16           -1.2622    -0.7572     0.0100 C.2     
  17 C17           -3.3844    -1.1984    -0.0224 C.2     
  18 C18           -3.4314    -6.0202    -0.2586 C.ar    
  19 C19           -4.4930    -3.7495     0.9165 C.ar    
  20 C20            0.0021    -0.0041     0.0020 C.2     
  21 C21           -4.5903    -6.1048     0.4853 C.ar    
  22 C22           -5.1247    -4.9637     1.0712 C.ar    
  23 C23            1.7201     1.2506    -1.0826 C.3     
  24 C24           -6.4051    -7.3185     1.4276 C.3     
  25 C25            2.0842     1.7673    -2.4760 C.3     
  26 H26           -0.3430    -3.6871     1.1006 H       
  27 H27            0.9796    -1.5110    -0.5290 H       
  28 H28            1.5483    -2.3115     0.9736 H       
  29 H29            2.6606    -3.0038    -1.4107 H       
  30 H30            2.2638    -4.2874    -0.2194 H       
  31 H31            1.0120    -5.0304    -2.1316 H       
  32 H32            0.6372    -3.3575    -2.6431 H       
  33 H33           -4.4568    -1.0787    -0.0672 H       
  34 H34           -3.0201    -6.9095    -0.7130 H       
  35 H35           -4.9129    -2.8664     1.3750 H       
  36 H36           -6.0357    -5.0288     1.6477 H       
  37 H37            1.6137     2.0930    -0.3991 H       
  38 H38            2.5078     0.5885    -0.7234 H       
  39 H39           -6.7962    -8.3348     1.4753 H       
  40 H40           -6.1839    -6.9666     2.4352 H       
  41 H41           -7.1471    -6.6648     0.9691 H       
  42 H42            2.1906     0.9249    -3.1595 H       
  43 H43            1.2965     2.4294    -2.8353 H       
  44 H44            3.0249     2.3155    -2.4258 H       
@<TRIPOS>BOND
   1    1   13 2
   2    2   20 1
   3    2   23 1
   4    3   21 1
   5    3   24 1
   6    4   20 2
   7    5    8 1
   8    5   11 1
   9    5   13 am
  10    6   12 1
  11    6   14 1
  12    6   17 1
  13    7   16 1
  14    7   17 2
  15    8    9 1
  16    8   12 1
  17    8   26 1
  18    9   10 1
  19    9   27 1
  20    9   28 1
  21   10   11 1
  22   10   29 1
  23   10   30 1
  24   11   31 1
  25   11   32 1
  26   12   16 2
  27   13   15 1
  28   14   15 ar
  29   14   19 ar
  30   15   18 ar
  31   16   20 1
  32   17   33 1
  33   18   21 ar
  34   18   34 1
  35   19   22 ar
  36   19   35 1
  37   21   22 ar
  38   22   36 1
  39   23   25 1
  40   23   37 1
  41   23   38 1
  42   24   39 1
  43   24   40 1
  44   24   41 1
  45   25   42 1
  46   25   43 1
  47   25   44 1

#	End of record

