#	Name: ASD01680109
#	Creating user name:	WinNT
#	Creation time:	15. 06. 2019 19:22

#	Modifying user name:	WinNT
#	Modification time:	15. 06. 2019 19:22

#	Program:	/corina/corina34_cracker 3.40 0067  02.08.2006

@<TRIPOS>MOLECULE
ASD01680109
  73   75    0    0    0
SMALL
NO_CHARGES


@<TRIPOS>ATOM
   1 C1            -1.5994     1.1785    -0.7007 C.2     
   2 C2            -1.4018    -0.3130    -0.7863 C.3     
   3 C3            -1.8754    -0.8127    -2.1527 C.3     
   4 O4            -0.6509     1.9040    -0.5169 O.2     
   5 O5            -2.8284     1.7014    -0.8342 O.3     
   6 N6             0.0188    -0.6280    -0.6167 N.am    
   7 S7             0.6041    -1.0341     0.8783 S.o2    
   8 O8             1.9871    -1.3113     0.7059 O.2     
   9 O9             0.1149    -0.0520     1.7812 O.2     
  10 C10           -0.1546    -2.5560     1.3396 C.ar    
  11 C11           -1.2511    -2.5544     2.1814 C.ar    
  12 C12           -1.8463    -3.7484     2.5434 C.ar    
  13 C13           -1.3453    -4.9439     2.0632 C.ar    
  14 C14           -0.2494    -4.9455     1.2207 C.ar    
  15 C15            0.3431    -3.7512     0.8552 C.ar    
  16 C16            1.5347    -3.7526    -0.0674 C.3     
  17 C17           -1.9936    -6.2456     2.4586 C.3     
  18 C18           -1.7972    -1.2510     2.7049 C.3     
  19 N19           -1.5741    -2.2405    -2.2818 N.am    
  20 C20           -1.9035    -2.8994    -3.4105 C.2     
  21 O21           -2.4494    -2.3102    -4.3192 O.2     
  22 C22           -1.5936    -4.3682    -3.5433 C.3     
  23 O23           -2.0359    -4.8348    -4.8195 O.3     
  24 N24           -3.9535    -6.9962    -5.7242 N.am    
  25 C25           -2.9978    -7.0837    -4.6051 C.3     
  26 C26           -1.7882    -6.2234    -5.0484 C.3     
  27 C27           -1.7250    -6.5341    -6.5672 C.3     
  28 C28           -3.2124    -6.6765    -6.9531 C.3     
  29 C29           -3.3801    -7.8066    -7.9708 C.3     
  30 N30           -2.7255    -7.4335    -9.2271 N.pl3   
  31 C31           -2.6562    -8.3468   -10.2727 C.ar    
  32 C32           -3.2105    -9.6137   -10.1194 C.ar    
  33 C33           -3.1344   -10.5125   -11.1677 C.ar    
  34 C34           -2.5041   -10.1129   -12.3390 C.ar    
  35 C35           -1.9759    -8.8404   -12.4222 C.ar    
  36 N36           -2.0680    -8.0016   -11.4075 N.ar    
  37 C37           -5.2852    -7.1840    -5.6364 C.2     
  38 N38           -5.8597    -7.3838    -4.4337 N.am    
  39 O39           -5.9683    -7.1733    -6.6422 O.2     
  40 H40           -1.9786    -0.8016    -0.0009 H       
  41 H41           -2.9506    -0.6586    -2.2432 H       
  42 H42           -1.3616    -0.2603    -2.9395 H       
  43 H43           -2.9054     2.6634    -0.7719 H       
  44 H44            0.6166    -0.5986    -1.3800 H       
  45 H45           -2.7025    -3.7471     3.2016 H       
  46 H46            0.1422    -5.8796     0.8458 H       
  47 H47            2.4507    -3.7138     0.5222 H       
  48 H48            1.5278    -4.6618    -0.6685 H       
  49 H49            1.4875    -2.8832    -0.7231 H       
  50 H50           -2.7753    -6.4950     1.7410 H       
  51 H51           -1.2438    -7.0367     2.4687 H       
  52 H52           -2.4308    -6.1467     3.4522 H       
  53 H53           -2.3142    -0.7252     1.9022 H       
  54 H54           -2.4957    -1.4501     3.5177 H       
  55 H55           -0.9768    -0.6352     3.0734 H       
  56 H56           -1.1375    -2.7117    -1.5550 H       
  57 H57           -0.5184    -4.5223    -3.4527 H       
  58 H58           -2.1074    -4.9205    -2.7565 H       
  59 H59           -3.4400    -6.6764    -3.6959 H       
  60 H60           -2.6908    -8.1177    -4.4484 H       
  61 H61           -0.8758    -6.5435    -4.5453 H       
  62 H62           -1.2628    -5.7099    -7.1105 H       
  63 H63           -1.1887    -7.4656    -6.7484 H       
  64 H64           -3.5778    -5.7394    -7.3731 H       
  65 H65           -2.9254    -8.7172    -7.5807 H       
  66 H66           -4.4412    -7.9787    -8.1511 H       
  67 H67           -2.3404    -6.5491    -9.3294 H       
  68 H68           -3.6934    -9.8916    -9.1942 H       
  69 H69           -3.5554   -11.5030   -11.0776 H       
  70 H70           -2.4276   -10.7910   -13.1760 H       
  71 H71           -1.4849    -8.5255   -13.3312 H       
  72 H72           -5.3148    -7.3923    -3.6313 H       
  73 H73           -6.8182    -7.5189    -4.3705 H       
@<TRIPOS>BOND
   1    1    2 1
   2    1    4 2
   3    1    5 1
   4    2    3 1
   5    2    6 1
   6    2   40 1
   7    3   19 1
   8    3   41 1
   9    3   42 1
  10    5   43 1
  11    6    7 am
  12    6   44 1
  13    7    8 2
  14    7    9 2
  15    7   10 1
  16   10   11 ar
  17   10   15 ar
  18   11   12 ar
  19   11   18 1
  20   12   13 ar
  21   12   45 1
  22   13   14 ar
  23   13   17 1
  24   14   15 ar
  25   14   46 1
  26   15   16 1
  27   16   47 1
  28   16   48 1
  29   16   49 1
  30   17   50 1
  31   17   51 1
  32   17   52 1
  33   18   53 1
  34   18   54 1
  35   18   55 1
  36   19   20 am
  37   19   56 1
  38   20   21 2
  39   20   22 1
  40   22   23 1
  41   22   57 1
  42   22   58 1
  43   23   26 1
  44   24   25 1
  45   24   28 1
  46   24   37 am
  47   25   26 1
  48   25   59 1
  49   25   60 1
  50   26   27 1
  51   26   61 1
  52   27   28 1
  53   27   62 1
  54   27   63 1
  55   28   29 1
  56   28   64 1
  57   29   30 1
  58   29   65 1
  59   29   66 1
  60   30   31 1
  61   30   67 1
  62   31   32 ar
  63   31   36 ar
  64   32   33 ar
  65   32   68 1
  66   33   34 ar
  67   33   69 1
  68   34   35 ar
  69   34   70 1
  70   35   36 ar
  71   35   71 1
  72   37   38 am
  73   37   39 2
  74   38   72 1
  75   38   73 1

#	End of record

