#	Name: ASD08070138
#	Creating user name:	WinNT
#	Creation time:	15. 06. 2019 21:14

#	Modifying user name:	WinNT
#	Modification time:	15. 06. 2019 21:14

#	Program:	/corina/corina34_cracker 3.40 0067  02.08.2006

@<TRIPOS>MOLECULE
ASD08070138
  38   38    0    0    0
SMALL
NO_CHARGES


@<TRIPOS>ATOM
   1 C1            -0.0160     1.3257     0.0093 C.2     
   2 N2             1.2295     3.4261     0.0087 N.am    
   3 C3             1.2478     2.0785     0.0013 C.2     
   4 O4             2.3091     1.4848    -0.0120 O.2     
   5 C5             0.0021    -0.0041     0.0020 C.2     
   6 C6             2.4882     4.1758     0.0007 C.3     
   7 C7             2.2516     5.5632    -0.5992 C.3     
   8 C8             3.0044     4.3211     1.4337 C.3     
   9 C9             4.3188     5.1040     1.4253 C.3     
  10 C10            4.0822     6.4915     0.8254 C.3     
  11 C11            3.5660     6.3462    -0.6076 C.3     
  12 C12            1.7354     5.4180    -2.0322 C.3     
  13 C13           -1.2926    -0.7753     0.0102 C.3     
  14 C14           -1.3737    -1.6492    -1.2430 C.3     
  15 C15           -1.3498    -1.6626     1.2553 C.3     
  16 H16           -0.9584     1.8529     0.0257 H       
  17 H17            0.3830     3.8996     0.0193 H       
  18 H18            0.9446    -0.5313    -0.0098 H       
  19 H19            3.2254     3.6417    -0.5987 H       
  20 H20            1.5143     6.0974     0.0002 H       
  21 H21            2.2671     4.8552     2.0331 H       
  22 H22            3.1729     3.3326     1.8611 H       
  23 H23            4.6866     5.2075     2.4462 H       
  24 H24            5.0561     4.5699     0.8259 H       
  25 H25            3.3450     7.0256     1.4248 H       
  26 H26            5.0187     7.0492     0.8194 H       
  27 H27            4.3033     5.8121    -1.2070 H       
  28 H28            3.3975     7.3346    -1.0350 H       
  29 H29            0.7989     4.8602    -2.0262 H       
  30 H30            1.5668     6.4064    -2.4596 H       
  31 H31            2.4726     4.8839    -2.6316 H       
  32 H32           -2.1306    -0.0783     0.0220 H       
  33 H33           -2.3101    -2.2070    -1.2371 H       
  34 H34           -1.3329    -1.0170    -2.1300 H       
  35 H35           -0.5357    -2.3461    -1.2547 H       
  36 H36           -1.2921    -1.0400     2.1482 H       
  37 H37           -2.2863    -2.2204     1.2613 H       
  38 H38           -0.5118    -2.3596     1.2436 H       
@<TRIPOS>BOND
   1    1    5 2
   2    1    3 1
   3    1   16 1
   4    2    3 am
   5    2    6 1
   6    2   17 1
   7    3    4 2
   8    5   13 1
   9    5   18 1
  10    6    7 1
  11    6    8 1
  12    6   19 1
  13    7   12 1
  14    7   11 1
  15    7   20 1
  16    8    9 1
  17    8   21 1
  18    8   22 1
  19    9   10 1
  20    9   23 1
  21    9   24 1
  22   10   11 1
  23   10   25 1
  24   10   26 1
  25   11   27 1
  26   11   28 1
  27   12   29 1
  28   12   30 1
  29   12   31 1
  30   13   14 1
  31   13   15 1
  32   13   32 1
  33   14   33 1
  34   14   34 1
  35   14   35 1
  36   15   36 1
  37   15   37 1
  38   15   38 1

#	End of record

