#	Name: ASD04880346
#	Creating user name:	WinNT
#	Creation time:	15. 06. 2019 20:53

#	Modifying user name:	WinNT
#	Modification time:	15. 06. 2019 20:53

#	Program:	/corina/corina34_cracker 3.40 0067  02.08.2006

@<TRIPOS>MOLECULE
ASD04880346
  36   39    0    0    0
SMALL
NO_CHARGES


@<TRIPOS>ATOM
   1 C1            -0.0144     1.2118     0.0087 C.2     
   2 O2             0.0626    -0.0016    -0.0136 O.2     
   3 C3             1.2154     2.0309    -0.0197 C.ar    
   4 C4             1.1302     3.4192    -0.1381 C.ar    
   5 C5             2.2840     4.1788    -0.1636 C.ar    
   6 C6             3.5229     3.5641    -0.0718 C.ar    
   7 C7             3.6119     2.1889     0.0456 C.ar    
   8 C8             2.4667     1.4200     0.0775 C.ar    
   9 F9             2.2046     5.5225    -0.2785 F       
  10 N10           -1.2214     1.8097     0.0538 N.am    
  11 N11           -1.4433     3.1780     0.1950 N.2     
  12 C12           -2.6879     3.5105     0.2114 C.2     
  13 C13           -3.5435     2.2722     0.0678 C.3     
  14 C14           -2.5202     1.1248    -0.0445 C.3     
  15 O15           -4.3840     8.7990     0.7444 O.3     
  16 C16           -4.1967     7.4705     0.6070 C.ar    
  17 C17           -2.8086     7.2444     0.6039 C.ar    
  18 C18           -2.1947     8.5700     0.7530 C.2     
  19 C19           -3.2074     9.4436     0.8300 C.2     
  20 C20           -2.3100     5.9518     0.4753 C.ar    
  21 C21           -3.1992     4.8868     0.3496 C.ar    
  22 C22           -4.5799     5.1249     0.3540 C.ar    
  23 C23           -5.0675     6.3937     0.4807 C.ar    
  24 H24            0.1649     3.8983    -0.2100 H       
  25 H25            4.4224     4.1614    -0.0924 H       
  26 H26            4.5803     1.7161     0.1167 H       
  27 H27            2.5385     0.3466     0.1734 H       
  28 H28           -4.1762     2.1407     0.9456 H       
  29 H29           -4.1495     2.3289    -0.8365 H       
  30 H30           -2.6143     0.6168    -1.0043 H       
  31 H31           -2.6453     0.4200     0.7775 H       
  32 H32           -1.1392     8.7953     0.7926 H       
  33 H33           -3.0948    10.5116     0.9444 H       
  34 H34           -1.2444     5.7759     0.4724 H       
  35 H35           -5.2654     4.2961     0.2563 H       
  36 H36           -6.1343     6.5620     0.4825 H       
@<TRIPOS>BOND
   1    1    2 2
   2    1    3 1
   3    1   10 am
   4    3    4 ar
   5    3    8 ar
   6    4    5 ar
   7    4   24 1
   8    5    6 ar
   9    5    9 1
  10    6    7 ar
  11    6   25 1
  12    7    8 ar
  13    7   26 1
  14    8   27 1
  15   10   11 1
  16   10   14 1
  17   11   12 2
  18   12   13 1
  19   12   21 1
  20   13   14 1
  21   13   28 1
  22   13   29 1
  23   14   30 1
  24   14   31 1
  25   15   16 1
  26   15   19 1
  27   16   17 ar
  28   16   23 ar
  29   17   18 1
  30   17   20 ar
  31   18   19 2
  32   18   32 1
  33   19   33 1
  34   20   21 ar
  35   20   34 1
  36   21   22 ar
  37   22   23 ar
  38   22   35 1
  39   23   36 1

#	End of record

