#	Name: ASD01230829
#	Creating user name:	WinNT
#	Creation time:	15. 06. 2019 19:15

#	Modifying user name:	WinNT
#	Modification time:	15. 06. 2019 19:15

#	Program:	/corina/corina34_cracker 3.40 0067  02.08.2006

@<TRIPOS>MOLECULE
ASD01230829
  45   48    0    0    0
SMALL
NO_CHARGES


@<TRIPOS>ATOM
   1 C1             0.9960    -0.1174    -0.6746 C.3     
   2 C2             1.4213    -1.5082    -0.1961 C.3     
   3 C3             0.3031    -2.5230    -0.3880 C.3     
   4 C4            -1.0804    -1.8897    -0.3365 C.3     
   5 N5            -1.0821    -0.6800     0.4892 N.pl3   
   6 C6            -0.1839     0.3090     0.1821 C.2     
   7 C7            -1.9921    -0.5553     1.6249 C.3     
   8 C8            -2.7633     0.7613     1.5182 C.3     
   9 S9            -1.5898     2.1344     1.3724 S.o2    
  10 N10           -0.3076     1.5278     0.5356 N.am    
  11 C11            2.1340     0.8553    -0.5021 C.ar    
  12 O12           -2.1126     3.1453     0.5215 O.2     
  13 O13           -1.0498     2.4623     2.6453 O.2     
  14 C14            2.6516     1.5141    -1.6021 C.ar    
  15 C15            3.6951     2.4058    -1.4467 C.ar    
  16 C16            4.2234     2.6406    -0.1853 C.ar    
  17 C17            3.7018     1.9786     0.9169 C.ar    
  18 C18            2.6549     1.0917     0.7568 C.ar    
  19 O19            5.2502     3.5171    -0.0299 O.3     
  20 C20            5.6575     4.2220    -1.1178 C.ar    
  21 C21            5.0648     5.4406    -1.4180 C.ar    
  22 C22            5.4800     6.1565    -2.5239 C.ar    
  23 C23            6.4857     5.6607    -3.3328 C.ar    
  24 C24            7.0791     4.4450    -3.0367 C.ar    
  25 C25            6.6699     3.7274    -1.9265 C.ar    
  26 F26            8.0610     3.9619    -3.8289 F       
  27 H27            0.6995    -0.1597    -1.7227 H       
  28 H28            2.2957    -1.8289    -0.7624 H       
  29 H29            1.6805    -1.4583     0.8615 H       
  30 H30            0.4316    -3.0096    -1.3549 H       
  31 H31            0.3742    -3.2775     0.3954 H       
  32 H32           -1.3925    -1.6316    -1.3484 H       
  33 H33           -1.7861    -2.6078     0.0812 H       
  34 H34           -2.6943    -1.3890     1.6211 H       
  35 H35           -1.4195    -0.5668     2.5523 H       
  36 H36           -3.4052     0.7364     0.6376 H       
  37 H37           -3.3744     0.8982     2.4104 H       
  38 H38            2.2400     1.3310    -2.5836 H       
  39 H39            4.0995     2.9196    -2.3063 H       
  40 H40            4.1113     2.1596     1.8998 H       
  41 H41            2.2483     0.5764     1.6144 H       
  42 H42            4.2789     5.8289    -0.7872 H       
  43 H43            5.0183     7.1045    -2.7572 H       
  44 H44            6.8088     6.2221    -4.1970 H       
  45 H45            7.1323     2.7793    -1.6950 H       
@<TRIPOS>BOND
   1    1    2 1
   2    1   11 1
   3    1    6 1
   4    1   27 1
   5    2    3 1
   6    2   28 1
   7    2   29 1
   8    3    4 1
   9    3   30 1
  10    3   31 1
  11    4    5 1
  12    4   32 1
  13    4   33 1
  14    5    6 1
  15    5    7 1
  16    6   10 2
  17    7    8 1
  18    7   34 1
  19    7   35 1
  20    8    9 1
  21    8   36 1
  22    8   37 1
  23    9   10 am
  24    9   12 2
  25    9   13 2
  26   11   14 ar
  27   11   18 ar
  28   14   15 ar
  29   14   38 1
  30   15   16 ar
  31   15   39 1
  32   16   17 ar
  33   16   19 1
  34   17   18 ar
  35   17   40 1
  36   18   41 1
  37   19   20 1
  38   20   21 ar
  39   20   25 ar
  40   21   22 ar
  41   21   42 1
  42   22   23 ar
  43   22   43 1
  44   23   24 ar
  45   23   44 1
  46   24   25 ar
  47   24   26 1
  48   25   45 1

#	End of record

