#	Name: ASD03110015
#	Creating user name:	WinNT
#	Creation time:	15. 06. 2019 20:33

#	Modifying user name:	WinNT
#	Modification time:	15. 06. 2019 20:33

#	Program:	/corina/corina34_cracker 3.40 0067  02.08.2006

@<TRIPOS>MOLECULE
ASD03110015
  49   52    0    0    0
SMALL
NO_CHARGES


@<TRIPOS>ATOM
   1 C1            -0.0167     1.3837     0.0096 C.ar    
   2 C2             0.0021    -0.0041     0.0020 C.ar    
   3 C3             1.2033    -0.6765    -0.0130 C.ar    
   4 C4             2.4013     0.0355    -0.0206 C.ar    
   5 C5             2.3914     1.4362    -0.0130 C.ar    
   6 C6             1.1424     2.0967     0.0024 C.ar    
   7 S7             4.0773    -0.5072    -0.0401 S.3     
   8 C8             4.6286     1.1626    -0.0366 C.2     
   9 N9             3.6194     1.9666    -0.0223 N.2     
  10 C10            6.0454     1.5847    -0.0476 C.ar    
  11 C11            6.3691     2.9434    -0.0436 C.ar    
  12 C12            7.0599     0.6249    -0.0562 C.ar    
  13 C13            8.3792     1.0176    -0.0659 C.ar    
  14 C14            8.7033     2.3768    -0.0677 C.ar    
  15 C15            7.6882     3.3368    -0.0542 C.ar    
  16 C16           10.1190     2.7986    -0.0781 C.2     
  17 O17           11.0024     1.9629    -0.0852 O.2     
  18 N18           10.4315     4.1096    -0.0798 N.am    
  19 N19           11.7741     4.5097    -0.0898 N.2     
  20 C20           12.0751     5.7725    -0.0914 C.2     
  21 C21           13.4878     6.1935    -0.1018 C.ar    
  22 C22           13.8138     7.5523    -0.1036 C.ar    
  23 C23           14.5043     5.2348    -0.1041 C.ar    
  24 C24           15.8251     5.6307    -0.1134 C.ar    
  25 C25           16.1483     6.9799    -0.1200 C.ar    
  26 C26           15.1401     7.9414    -0.1129 C.ar    
  27 O27           17.4520     7.3647    -0.1283 O.3     
  28 C28           18.4347     6.3272    -0.1296 C.3     
  29 O29           15.4609     9.2630    -0.1200 O.3     
  30 C30           14.3766    10.1938    -0.1120 C.3     
  31 H31           -0.9630     1.9042     0.0169 H       
  32 H32           -0.9259    -0.5566     0.0082 H       
  33 H33            1.2173    -1.7564    -0.0186 H       
  34 H34            1.1074     3.1761     0.0082 H       
  35 H35            5.5845     3.6854    -0.0324 H       
  36 H36            6.8093    -0.4257    -0.0548 H       
  37 H37            9.1636     0.2754    -0.0719 H       
  38 H38            7.9384     4.3874    -0.0556 H       
  39 H39            9.7268     4.7762    -0.0742 H       
  40 H40           11.2905     6.5147    -0.0851 H       
  41 H41           13.0313     8.2967    -0.0981 H       
  42 H42           14.2556     4.1838    -0.0983 H       
  43 H43           16.6099     4.8888    -0.1152 H       
  44 H44           18.3068     5.7068    -1.0167 H       
  45 H45           19.4306     6.7700    -0.1365 H       
  46 H46           18.3161     5.7133     0.7632 H       
  47 H47           13.7575    10.0380    -0.9955 H       
  48 H48           13.7751    10.0432     0.7844 H       
  49 H49           14.7703    11.2102    -0.1189 H       
@<TRIPOS>BOND
   1    1    2 ar
   2    1    6 ar
   3    1   31 1
   4    2    3 ar
   5    2   32 1
   6    3    4 ar
   7    3   33 1
   8    4    5 ar
   9    4    7 1
  10    5    6 ar
  11    5    9 1
  12    6   34 1
  13    7    8 1
  14    8    9 2
  15    8   10 1
  16   10   11 ar
  17   10   12 ar
  18   11   15 ar
  19   11   35 1
  20   12   13 ar
  21   12   36 1
  22   13   14 ar
  23   13   37 1
  24   14   15 ar
  25   14   16 1
  26   15   38 1
  27   16   17 2
  28   16   18 am
  29   18   19 1
  30   18   39 1
  31   19   20 2
  32   20   21 1
  33   20   40 1
  34   21   22 ar
  35   21   23 ar
  36   22   26 ar
  37   22   41 1
  38   23   24 ar
  39   23   42 1
  40   24   25 ar
  41   24   43 1
  42   25   26 ar
  43   25   27 1
  44   26   29 1
  45   27   28 1
  46   28   44 1
  47   28   45 1
  48   28   46 1
  49   29   30 1
  50   30   47 1
  51   30   48 1
  52   30   49 1

#	End of record

