#	Name: ASD01885682
#	Creating user name:	WinNT
#	Creation time:	15. 06. 2019 19:50

#	Modifying user name:	WinNT
#	Modification time:	15. 06. 2019 19:50

#	Program:	/corina/corina34_cracker 3.40 0067  02.08.2006

@<TRIPOS>MOLECULE
ASD01885682
  52   55    0    0    0
SMALL
NO_CHARGES


@<TRIPOS>ATOM
   1 C1            -1.0268     0.8381    -0.2789 C.ar    
   2 C2             0.2672     1.4071    -0.3877 C.ar    
   3 C3             1.3908     0.5485    -0.4898 C.ar    
   4 C4             1.1650    -0.8211    -0.4781 C.ar    
   5 C5            -0.1443    -1.3029    -0.3674 C.ar    
   6 N6            -1.1769    -0.4866    -0.2738 N.ar    
   7 C7            -1.9623     3.0408    -0.1907 C.ar    
   8 C8            -0.6878     3.5954    -0.2934 C.ar    
   9 C9             0.4143     2.8005    -0.3929 C.ar    
  10 C10            2.7620     1.0954    -0.6059 C.ar    
  11 C11           -0.3772    -2.7673    -0.3566 C.2     
  12 C12           -3.1602     3.9494    -0.0882 C.3     
  13 C13           -2.1423     1.6925    -0.1829 C.ar    
  14 N14           -1.6314    -3.2494    -0.2521 N.am    
  15 O15            0.5627    -3.5325    -0.4419 O.2     
  16 N16           -3.4360     4.2367     1.3217 N.pl3   
  17 N17           -3.6266     3.3619     2.2464 N.2     
  18 N18           -3.8427     3.9459     3.3720 N.2     
  19 C19           -3.7939     5.2701     3.1891 C.2     
  20 C20           -3.5282     5.4674     1.8766 C.2     
  21 C21            3.7849     0.6329     0.2299 C.ar    
  22 C22            5.0484     1.1747     0.0821 C.ar    
  23 C23            5.2597     2.1500    -0.8805 C.ar    
  24 N24            4.2736     2.5665    -1.6550 N.ar    
  25 C25            3.0556     2.0752    -1.5535 C.ar    
  26 C26           -3.9904     6.3332     4.2390 C.3     
  27 C27           -5.2528     7.1370     3.9208 C.3     
  28 C28           -4.1384     5.6734     5.6114 C.3     
  29 F29            6.4924     2.6827    -1.0284 F       
  30 O30           -2.8596     7.2068     4.2498 O.3     
  31 F31           -6.3428     6.2675     3.8064 F       
  32 F32           -5.4936     8.0538     4.9497 F       
  33 F33           -5.0763     7.8247     2.7153 F       
  34 C34           -2.8485     4.9285     5.9609 C.3     
  35 H35            1.9935    -1.5098    -0.5541 H       
  36 H36           -0.5727     4.6692    -0.2984 H       
  37 H37            1.3964     3.2422    -0.4750 H       
  38 H38           -2.9558     4.8811    -0.6156 H       
  39 H39           -4.0260     3.4610    -0.5355 H       
  40 H40           -3.1368     1.2788    -0.1038 H       
  41 H41           -2.3818    -2.6384    -0.1840 H       
  42 H42           -1.7838    -4.2073    -0.2451 H       
  43 H43           -3.4180     6.4161     1.3726 H       
  44 H44            3.5921    -0.1279     0.9718 H       
  45 H45            5.8618     0.8420     0.7100 H       
  46 H46            2.2763     2.4379    -2.2074 H       
  47 H47           -4.3312     6.4385     6.3635 H       
  48 H48           -4.9699     4.9690     5.5882 H       
  49 H49           -2.0224     6.7641     4.4453 H       
  50 H50           -2.6849     4.1274     5.2401 H       
  51 H51           -2.0084     5.6223     5.9298 H       
  52 H52           -2.9332     4.5051     6.9617 H       
@<TRIPOS>BOND
   1    1    6 ar
   2    1    2 ar
   3    1   13 ar
   4    2    3 ar
   5    2    9 ar
   6    3   10 1
   7    3    4 ar
   8    4    5 ar
   9    4   35 1
  10    5   11 1
  11    5    6 ar
  12    7   12 1
  13    7   13 ar
  14    7    8 ar
  15    8    9 ar
  16    8   36 1
  17    9   37 1
  18   10   21 ar
  19   10   25 ar
  20   11   14 am
  21   11   15 2
  22   12   16 1
  23   12   38 1
  24   12   39 1
  25   13   40 1
  26   14   41 1
  27   14   42 1
  28   16   17 1
  29   16   20 1
  30   17   18 2
  31   18   19 1
  32   19   20 2
  33   19   26 1
  34   20   43 1
  35   21   22 ar
  36   21   44 1
  37   22   23 ar
  38   22   45 1
  39   23   29 1
  40   23   24 ar
  41   24   25 ar
  42   25   46 1
  43   26   27 1
  44   26   28 1
  45   26   30 1
  46   27   31 1
  47   27   32 1
  48   27   33 1
  49   28   34 1
  50   28   47 1
  51   28   48 1
  52   30   49 1
  53   34   50 1
  54   34   51 1
  55   34   52 1

#	End of record

