#	Name: ASD04220004
#	Creating user name:	WinNT
#	Creation time:	15. 06. 2019 20:48

#	Modifying user name:	WinNT
#	Modification time:	15. 06. 2019 20:48

#	Program:	/corina/corina34_cracker 3.40 0067  02.08.2006

@<TRIPOS>MOLECULE
ASD04220004
  51   53    0    0    0
SMALL
NO_CHARGES


@<TRIPOS>ATOM
   1 C1            -1.1363     0.4869     1.1729 C.ar    
   2 C2            -1.2448    -0.5490     2.0958 C.ar    
   3 C3            -2.4922    -0.9141     2.5683 C.ar    
   4 C4            -3.6332    -0.2559     2.1294 C.ar    
   5 C5            -3.5285     0.7622     1.2075 C.ar    
   6 C6            -2.2755     1.1387     0.7387 C.ar    
   7 C7            -4.9581    -0.6873     2.7071 C.3     
   8 N8            -6.0524    -0.0810     1.9417 N.am    
   9 C9            -5.9270     1.3442     1.5947 C.3     
  10 C10           -4.7254     1.4973     0.6636 C.3     
  11 C11           -7.1299    -0.8002     1.5702 C.2     
  12 O12           -8.0682    -0.2521     1.0248 O.2     
  13 C13           -7.1710    -2.2535     1.8254 C.ar    
  14 C14           -7.9034    -2.7544     2.9049 C.ar    
  15 C15           -7.9386    -4.1153     3.1396 C.ar    
  16 C16           -7.2445    -4.9854     2.3003 C.ar    
  17 C17           -6.5165    -4.4874     1.2282 C.ar    
  18 C18           -6.4823    -3.1316     0.9849 C.ar    
  19 H19           -5.9794    -5.1647     0.5806 H       
  20 O20           -8.6501    -4.6061     4.1896 O.3     
  21 O21          -10.0463    -4.9289     3.8665 O.3     
  22 O22          -10.8149    -5.4591     5.0006 O.3     
  23 S23          -12.2614    -5.7935     4.6659 S.3     
  24 O24          -12.8085    -6.3095     5.9891 O.3     
  25 O25           -7.2801    -6.3229     2.5323 O.3     
  26 O26           -8.3790    -7.0187     1.8496 O.3     
  27 O27           -8.4175    -8.4656     2.1005 O.3     
  28 S28           -9.5561    -9.1865     1.3931 S.3     
  29 O29           -9.3608   -10.6349     1.8181 O.3     
  30 C30           -7.1773     1.8103     0.8943 C.2     
  31 O31           -7.9613     2.5447     1.4709 O.co2   
  32 O32           -7.4048     1.4530    -0.2490 O.co2   
  33 O33            0.0848     0.8598     0.7046 O.3     
  34 O34            0.5058     0.1410    -0.5054 O.3     
  35 O35            1.8248     0.5438    -1.0112 O.3     
  36 S36            2.2609    -0.2010    -2.2648 S.3     
  37 O37            3.6275     0.3997    -2.5620 O.3     
  38 O38           -0.1315    -1.1982     2.5300 O.3     
  39 O39            0.4803    -0.6017     3.7249 O.3     
  40 O40            1.6828    -1.3030     4.1939 O.3     
  41 S41            2.3167    -0.6849     5.4319 S.3     
  42 O42            3.5132    -1.5890     5.6916 O.3     
  43 H43           -2.5796    -1.7180     3.2842 H       
  44 H44           -2.1917     1.9429     0.0226 H       
  45 H45           -5.0390    -1.7731     2.6575 H       
  46 H46           -5.0218    -0.3667     3.7470 H       
  47 H47           -5.7696     1.9315     2.4994 H       
  48 H48           -4.4817     2.5549     0.5638 H       
  49 H49           -4.9783     1.0944    -0.3172 H       
  50 H50           -8.4404    -2.0791     3.5545 H       
  51 H51           -5.9152    -2.7469     0.1502 H       
@<TRIPOS>BOND
   1    1    2 ar
   2    1   33 1
   3    1    6 ar
   4    2    3 ar
   5    2   38 1
   6    3    4 ar
   7    3   43 1
   8    4    5 ar
   9    4    7 1
  10    5    6 ar
  11    5   10 1
  12    6   44 1
  13    7    8 1
  14    7   45 1
  15    7   46 1
  16    8    9 1
  17    8   11 am
  18    9   10 1
  19    9   30 1
  20    9   47 1
  21   10   48 1
  22   10   49 1
  23   11   12 2
  24   11   13 1
  25   13   14 ar
  26   13   18 ar
  27   14   15 ar
  28   14   50 1
  29   15   16 ar
  30   15   20 1
  31   16   17 ar
  32   16   25 1
  33   17   18 ar
  34   17   19 1
  35   18   51 1
  36   20   21 1
  37   21   22 1
  38   22   23 1
  39   23   24 1
  40   25   26 1
  41   26   27 1
  42   27   28 1
  43   28   29 1
  44   30   31 ar
  45   30   32 ar
  46   33   34 1
  47   34   35 1
  48   35   36 1
  49   36   37 1
  50   38   39 1
  51   39   40 1
  52   40   41 1
  53   41   42 1

#	End of record

