#	Name: ASD01903083
#	Creating user name:	WinNT
#	Creation time:	15. 06. 2019 19:54

#	Modifying user name:	WinNT
#	Modification time:	15. 06. 2019 19:54

#	Program:	/corina/corina34_cracker 3.40 0067  02.08.2006

@<TRIPOS>MOLECULE
ASD01903083
  28   30    0    0    0
SMALL
NO_CHARGES


@<TRIPOS>ATOM
   1 C1            -0.0160     1.2944     0.0207 C.2     
   2 N2             0.0005    -0.0032     0.0039 N.2     
   3 C3            -1.1729    -0.6194     0.0256 C.2     
   4 C4            -2.2469     0.1860     0.0626 C.2     
   5 S5            -1.6843     1.8558     0.0772 S.3     
   6 C6            -1.2917    -2.1001     0.0094 C.2     
   7 N7             1.1050     2.1111     0.0028 N.pl3   
   8 C8            -2.2698    -2.8633     0.6754 C.2     
   9 N9            -2.0441    -4.1252     0.4206 N.2     
  10 N10           -0.9218    -4.2170    -0.4116 N.pl3   
  11 C11           -0.4769    -2.9665    -0.6578 C.2     
  12 C12            0.9587     3.4914    -0.0934 C.ar    
  13 N13           -0.2439     4.0219    -0.2733 N.ar    
  14 C14           -0.3789     5.3341    -0.3643 C.ar    
  15 C15            0.7304     6.1530    -0.2727 C.ar    
  16 N16            1.9314     5.6285    -0.0933 N.ar    
  17 C17            2.0739     4.3206     0.0047 C.ar    
  18 C18           -3.6856    -0.2615     0.0925 C.3     
  19 H19            1.9910     1.7200     0.0575 H       
  20 H20           -3.0677    -2.4736     1.2902 H       
  21 H21           -0.5333    -5.0369    -0.7545 H       
  22 H22            0.3739    -2.7007    -1.2675 H       
  23 H23           -1.3576     5.7666    -0.5108 H       
  24 H24            0.6165     7.2244    -0.3482 H       
  25 H25            3.0547     3.8929     0.1512 H       
  26 H26           -4.0070    -0.3826     1.1270 H       
  27 H27           -4.3092     0.4870    -0.3964 H       
  28 H28           -3.7813    -1.2125    -0.4314 H       
@<TRIPOS>BOND
   1    1    2 2
   2    1    7 1
   3    1    5 1
   4    2    3 1
   5    3    4 2
   6    3    6 1
   7    4    5 1
   8    4   18 1
   9    6    8 1
  10    6   11 2
  11    7   12 1
  12    7   19 1
  13    8    9 2
  14    8   20 1
  15    9   10 1
  16   10   11 1
  17   10   21 1
  18   11   22 1
  19   12   13 ar
  20   12   17 ar
  21   13   14 ar
  22   14   15 ar
  23   14   23 1
  24   15   16 ar
  25   15   24 1
  26   16   17 ar
  27   17   25 1
  28   18   26 1
  29   18   27 1
  30   18   28 1

#	End of record

