#	Name: ASD01813304
#	Creating user name:	WinNT
#	Creation time:	15. 06. 2019 19:30

#	Modifying user name:	WinNT
#	Modification time:	15. 06. 2019 19:30

#	Program:	/corina/corina34_cracker 3.40 0067  02.08.2006

@<TRIPOS>MOLECULE
ASD01813304
  55   59    0    0    0
SMALL
NO_CHARGES


@<TRIPOS>ATOM
   1 C1            -0.0189     1.3607    -0.0576 C.2     
   2 N2             0.0021    -0.0041     0.0020 N.pl3   
   3 C3            -1.1023    -0.7548     0.0899 C.2     
   4 C4            -2.3466    -0.1569     0.1246 C.2     
   5 C5            -2.4041     1.3090     0.0589 C.2     
   6 O6            -3.4753     1.8939     0.0883 O.2     
   7 C7             1.3009    -0.6808    -0.0325 C.3     
   8 C8             1.8373    -0.8104     1.3698 C.ar    
   9 C9            -1.2722     3.5328    -0.1191 C.3     
  10 C10            0.0729     4.1743     0.2144 C.3     
  11 C11            1.1515     3.4910    -0.6354 C.3     
  12 C12            1.3171     2.0582    -0.1356 C.3     
  13 C13           -1.1826     2.0321    -0.0393 C.2     
  14 N14            2.5108     0.1908     1.9023 N.ar    
  15 C15            2.9999     0.1279     3.1240 C.ar    
  16 C16            2.8193    -1.0133     3.9021 C.ar    
  17 C17            2.1098    -2.0917     3.3662 C.ar    
  18 C18            1.6108    -1.9752     2.0804 C.ar    
  19 C19            3.3716    -1.0831     5.2777 C.ar    
  20 O20           -2.2565     3.9951     0.8079 O.3     
  21 C21            3.1829    -2.2349     6.0481 C.ar    
  22 C22            3.6844    -2.3157     7.3153 C.ar    
  23 C23            4.3922    -1.2471     7.8576 C.ar    
  24 C24            4.5885    -0.0824     7.0916 C.ar    
  25 C25            4.0796    -0.0072     5.7955 C.ar    
  26 N26            5.0014    -1.0384     9.0748 N.pl3   
  27 C27            5.5703     0.2056     9.1041 C.2     
  28 C28            5.3571     0.8344     7.9375 C.2     
  29 C29            5.0350    -2.0049    10.1753 C.3     
  30 C30           -3.5742    -0.9621     0.2237 C.2     
  31 O31           -3.5033    -2.1743     0.2764 O.2     
  32 O32           -4.7773    -0.3553     0.2560 O.3     
  33 H33           -1.0202    -1.8308     0.1333 H       
  34 H34            1.1825    -1.6724    -0.4693 H       
  35 H35            1.9978    -0.0990    -0.6358 H       
  36 H36           -1.5670     3.8214    -1.1280 H       
  37 H37            0.0407     5.2387    -0.0182 H       
  38 H38            0.2949     4.0348     1.2724 H       
  39 H39            0.8447     3.4823    -1.6813 H       
  40 H40            2.0948     4.0274    -0.5329 H       
  41 H41            1.7719     2.0740     0.8548 H       
  42 H42            1.9672     1.5126    -0.8195 H       
  43 H43            3.5462     0.9685     3.5256 H       
  44 H44            1.9515    -2.9914     3.9422 H       
  45 H45            1.0574    -2.7881     1.6340 H       
  46 H46           -2.3850     4.9535     0.7998 H       
  47 H47            2.6344    -3.0692     5.6363 H       
  48 H48            3.5311    -3.2114     7.8988 H       
  49 H49            4.2274     0.8836     5.2030 H       
  50 H50            6.1110     0.6204     9.9420 H       
  51 H51            5.6891     1.8274     7.6727 H       
  52 H52            5.9182    -2.6362    10.0776 H       
  53 H53            5.0726    -1.4722    11.1256 H       
  54 H54            4.1394    -2.6252    10.1416 H       
  55 H55           -5.5552    -0.9260     0.3216 H       
@<TRIPOS>BOND
   1    1    2 1
   2    1   12 1
   3    1   13 2
   4    2    3 1
   5    2    7 1
   6    3    4 2
   7    3   33 1
   8    4    5 1
   9    4   30 1
  10    5    6 2
  11    5   13 1
  12    7    8 1
  13    7   34 1
  14    7   35 1
  15    8   14 ar
  16    8   18 ar
  17    9   10 1
  18    9   13 1
  19    9   20 1
  20    9   36 1
  21   10   11 1
  22   10   37 1
  23   10   38 1
  24   11   12 1
  25   11   39 1
  26   11   40 1
  27   12   41 1
  28   12   42 1
  29   14   15 ar
  30   15   16 ar
  31   15   43 1
  32   16   17 ar
  33   16   19 1
  34   17   18 ar
  35   17   44 1
  36   18   45 1
  37   19   21 ar
  38   19   25 ar
  39   20   46 1
  40   21   22 ar
  41   21   47 1
  42   22   23 ar
  43   22   48 1
  44   23   24 ar
  45   23   26 1
  46   24   25 ar
  47   24   28 1
  48   25   49 1
  49   26   27 1
  50   26   29 1
  51   27   28 2
  52   27   50 1
  53   28   51 1
  54   29   52 1
  55   29   53 1
  56   29   54 1
  57   30   31 2
  58   30   32 1
  59   32   55 1

#	End of record

