#	Name: ASD00170271
#	Creating user name:	WinNT
#	Creation time:	15. 06. 2019 18:31

#	Modifying user name:	WinNT
#	Modification time:	15. 06. 2019 18:31

#	Program:	/corina/corina34_cracker 3.40 0067  02.08.2006

@<TRIPOS>MOLECULE
ASD00170271
  27   29    0    0    0
SMALL
NO_CHARGES


@<TRIPOS>ATOM
   1 C1            -0.0257     1.3588     0.0057 C.2     
   2 C2            -0.0004    -0.0080     0.0011 C.2     
   3 C3            -1.3319    -0.6089     0.0156 C.2     
   4 C4            -2.3000     0.3018     0.0305 C.2     
   5 S5            -1.6269     1.9317     0.0341 S.3     
   6 C6             1.2379    -0.7917    -0.0171 C.2     
   7 C7             1.7841    -1.2716    -1.2924 C.2     
   8 O8             1.2038    -1.1399    -2.5028 O.3     
   9 C9             1.9885    -1.6967    -3.4353 C.2     
  10 C10            3.0902    -2.1968    -2.8340 C.2     
  11 C11            2.9715    -1.9243    -1.4617 C.2     
  12 O12            1.8143    -1.0450     1.0268 O.2     
  13 N13            1.0963     2.1647    -0.0051 N.pl3   
  14 C14           -1.9284    -2.0137     0.0179 C.3     
  15 C15           -3.3860    -1.8250     0.4836 C.3     
  16 C16           -3.6663    -0.3734     0.0452 C.3     
  17 H17            1.7754    -1.7388    -4.4933 H       
  18 H18            3.9099    -2.7068    -3.3182 H       
  19 H19            3.6788    -2.1865    -0.6889 H       
  20 H20            1.9792     1.7678     0.0570 H       
  21 H21            1.0012     3.1275    -0.0748 H       
  22 H22           -1.9030    -2.4380    -0.9858 H       
  23 H23           -1.3876    -2.6539     0.7148 H       
  24 H24           -4.0519    -2.5221    -0.0250 H       
  25 H25           -3.4669    -1.9288     1.5656 H       
  26 H26           -4.3246     0.1185     0.7613 H       
  27 H27           -4.1082    -0.3568    -0.9510 H       
@<TRIPOS>BOND
   1    1    2 2
   2    1   13 1
   3    1    5 1
   4    2    3 1
   5    2    6 1
   6    3    4 2
   7    3   14 1
   8    4    5 1
   9    4   16 1
  10    6    7 1
  11    6   12 2
  12    7    8 1
  13    7   11 2
  14    8    9 1
  15    9   10 2
  16    9   17 1
  17   10   11 1
  18   10   18 1
  19   11   19 1
  20   13   20 1
  21   13   21 1
  22   14   15 1
  23   14   22 1
  24   14   23 1
  25   15   16 1
  26   15   24 1
  27   15   25 1
  28   16   26 1
  29   16   27 1

#	End of record

