#	Name: ASD00311317
#	Creating user name:	WinNT
#	Creation time:	15. 06. 2019 18:34

#	Modifying user name:	WinNT
#	Modification time:	15. 06. 2019 18:34

#	Program:	/corina/corina34_cracker 3.40 0067  02.08.2006

@<TRIPOS>MOLECULE
ASD00311317
  37   40    0    0    0
SMALL
NO_CHARGES


@<TRIPOS>ATOM
   1 C1            -0.0167     1.3781     0.0096 C.2     
   2 C2             0.0021    -0.0041     0.0020 C.2     
   3 C3             1.2589    -0.6765    -0.0128 C.2     
   4 C4             2.4315     0.0675    -0.0193 C.2     
   5 C5             2.3575     1.4754    -0.0111 C.2     
   6 N6             1.1649     2.0907     0.0022 N.am    
   7 C7            -1.3431    -0.5748     0.0118 C.2     
   8 C8            -2.3221     0.3255     0.0260 C.2     
   9 S9            -1.6795     1.9560     0.0358 S.3     
  10 O10            3.3823     2.1375    -0.0163 O.2     
  11 C11            3.7477    -0.6117    -0.0343 C.ar    
  12 C12            4.5941    -0.4742    -1.1343 C.ar    
  13 C13            5.8190    -1.1095    -1.1423 C.ar    
  14 C14            6.2079    -1.8818    -0.0624 C.ar    
  15 C15            5.3727    -2.0220     1.0316 C.ar    
  16 C16            4.1481    -1.3867     1.0541 C.ar    
  17 O17            1.3089    -2.0290    -0.0201 O.3     
  18 C18           -1.5956    -2.0356     0.0056 C.ar    
  19 C19           -1.2008    -2.8190     1.0923 C.ar    
  20 C20           -1.4386    -4.1794     1.0823 C.ar    
  21 C21           -2.0687    -4.7669    -0.0060 C.ar    
  22 C22           -2.4619    -3.9904    -1.0872 C.ar    
  23 C23           -2.2326    -2.6299    -1.0823 C.ar    
  24 O24           -2.3009    -6.1060    -0.0132 O.3     
  25 F25           -0.5872    -2.2470     2.1513 F       
  26 H26            1.1327     3.0602     0.0077 H       
  27 H27           -3.3746     0.0835     0.0341 H       
  28 H28            4.2913     0.1279    -1.9782 H       
  29 H29            6.4753    -1.0038    -1.9935 H       
  30 H30            7.1673    -2.3777    -0.0736 H       
  31 H31            5.6817    -2.6266     1.8715 H       
  32 H32            3.4990    -1.4929     1.9107 H       
  33 H33            2.2062    -2.3893    -0.0301 H       
  34 H34           -1.1337    -4.7867     1.9217 H       
  35 H35           -2.9515    -4.4515    -1.9322 H       
  36 H36           -2.5431    -2.0264    -1.9224 H       
  37 H37           -3.1532    -6.3595     0.3669 H       
@<TRIPOS>BOND
   1    1    2 2
   2    1    6 1
   3    1    9 1
   4    2    3 1
   5    2    7 1
   6    3    4 2
   7    3   17 1
   8    4    5 1
   9    4   11 1
  10    5    6 am
  11    5   10 2
  12    6   26 1
  13    7    8 2
  14    7   18 1
  15    8    9 1
  16    8   27 1
  17   11   12 ar
  18   11   16 ar
  19   12   13 ar
  20   12   28 1
  21   13   14 ar
  22   13   29 1
  23   14   15 ar
  24   14   30 1
  25   15   16 ar
  26   15   31 1
  27   16   32 1
  28   17   33 1
  29   18   19 ar
  30   18   23 ar
  31   19   20 ar
  32   19   25 1
  33   20   21 ar
  34   20   34 1
  35   21   22 ar
  36   21   24 1
  37   22   23 ar
  38   22   35 1
  39   23   36 1
  40   24   37 1

#	End of record

