#	Name: ASD01916105
#	Creating user name:	WinNT
#	Creation time:	15. 06. 2019 20:06

#	Modifying user name:	WinNT
#	Modification time:	15. 06. 2019 20:06

#	Program:	/corina/corina34_cracker 3.40 0067  02.08.2006

@<TRIPOS>MOLECULE
ASD01916105
  40   43    0    0    0
SMALL
NO_CHARGES


@<TRIPOS>ATOM
   1 C1            -0.0170     1.3991     0.0095 C.ar    
   2 C2             0.0021    -0.0041     0.0106 C.ar    
   3 C3            -1.2033    -0.6759     0.0180 C.ar    
   4 C4            -2.3890     0.0534     0.0242 C.ar    
   5 N5            -3.6085    -0.6194     0.0322 N.am    
   6 C6             1.2068     2.1427     0.0014 C.1     
   7 C7             2.2101     2.7523    -0.0053 C.1     
   8 C8             3.4339     3.4959    -0.0134 C.ar    
   9 C9             3.4065     4.8930    -0.0144 C.ar    
  10 C10            4.5892     5.6025    -0.0223 C.ar    
  11 N11           -2.3743     1.3776     0.0230 N.ar    
  12 C12           -1.2474     2.0592     0.0106 C.ar    
  13 C13            4.6613     2.8279    -0.0146 C.ar    
  14 C14            5.8009     4.9341    -0.0296 C.ar    
  15 N15           -3.7205    -1.9747    -0.0669 N.3     
  16 C16           -5.0694    -2.3512     0.4365 C.3     
  17 C17           -5.8799    -1.0632     0.1599 C.3     
  18 C18           -4.7974     0.0006     0.1443 C.2     
  19 C19            5.8359     3.5507    -0.0224 C.ar    
  20 O20           -4.9734     1.1985     0.2140 O.2     
  21 C21           -3.6923    -2.3835    -1.4934 C.3     
  22 C22           -4.4697    -3.7225    -1.5035 C.3     
  23 C23           -5.5924    -3.4777    -0.4700 C.3     
  24 H24            0.9370    -0.5448     0.0053 H       
  25 H25           -1.2265    -1.7557     0.0187 H       
  26 H26            2.4616     5.4160    -0.0094 H       
  27 H27            4.5697     6.6823    -0.0230 H       
  28 H28           -1.2752     3.1388     0.0101 H       
  29 H29            4.6901     1.7483    -0.0090 H       
  30 H30            6.7239     5.4949    -0.0365 H       
  31 H31           -5.0632    -2.6236     1.4919 H       
  32 H32           -6.3844    -1.1221    -0.8046 H       
  33 H33           -6.5941    -0.8747     0.9615 H       
  34 H34            6.7853     3.0359    -0.0234 H       
  35 H35           -4.1959    -1.6429    -2.1147 H       
  36 H36           -2.6662    -2.5333    -1.8293 H       
  37 H37           -4.8896    -3.9173    -2.4903 H       
  38 H38           -3.8270    -4.5442    -1.1875 H       
  39 H39           -5.7717    -4.3803     0.1141 H       
  40 H40           -6.5072    -3.1641    -0.9729 H       
@<TRIPOS>BOND
   1    1    2 ar
   2    1    6 1
   3    1   12 ar
   4    2    3 ar
   5    2   24 1
   6    3    4 ar
   7    3   25 1
   8    4   11 ar
   9    4    5 1
  10    5   15 1
  11    5   18 am
  12    6    7 3
  13    7    8 1
  14    8    9 ar
  15    8   13 ar
  16    9   10 ar
  17    9   26 1
  18   10   14 ar
  19   10   27 1
  20   11   12 ar
  21   12   28 1
  22   13   19 ar
  23   13   29 1
  24   14   19 ar
  25   14   30 1
  26   15   21 1
  27   15   16 1
  28   16   17 1
  29   16   23 1
  30   16   31 1
  31   17   18 1
  32   17   32 1
  33   17   33 1
  34   18   20 2
  35   19   34 1
  36   21   22 1
  37   21   35 1
  38   21   36 1
  39   22   23 1
  40   22   37 1
  41   22   38 1
  42   23   39 1
  43   23   40 1

#	End of record

