#	Name: ASD00450038
#	Creating user name:	WinNT
#	Creation time:	15. 06. 2019 18:36

#	Modifying user name:	WinNT
#	Modification time:	15. 06. 2019 18:36

#	Program:	/corina/corina34_cracker 3.40 0067  02.08.2006

@<TRIPOS>MOLECULE
ASD00450038
  46   48    0    0    0
SMALL
NO_CHARGES


@<TRIPOS>ATOM
   1 C1            -0.2244     1.2307    -0.1317 C.ar    
   2 C2            -0.4812    -0.1489    -0.1726 C.ar    
   3 C3             0.5308    -1.0269    -0.5200 C.ar    
   4 C4             1.7953    -0.5492    -0.8271 C.ar    
   5 C5             2.0606     0.8088    -0.7902 C.ar    
   6 C6             1.0605     1.7059    -0.4446 C.ar    
   7 C7            -1.2939     2.1722     0.2302 C.2     
   8 O8            -1.4643     2.4809     1.3945 O.2     
   9 N9            -2.0857     2.6932    -0.7280 N.am    
  10 N10            1.3282     3.0686    -0.4079 N.pl3   
  11 C11            2.6263     3.5197    -0.1459 C.ar    
  12 C12            3.0065     4.8050    -0.5193 C.ar    
  13 C13            3.5362     2.6881     0.4922 C.ar    
  14 C14            4.8177     3.1362     0.7497 C.ar    
  15 C15            5.1954     4.4120     0.3727 C.ar    
  16 C16            4.2901     5.2468    -0.2586 C.ar    
  17 F17            2.7758    -1.4152    -1.1644 F       
  18 F18            2.1226     5.6197    -1.1360 F       
  19 I19            7.1398     5.0855     0.7659 I       
  20 O20           -1.7172    -0.6200     0.1277 O.3     
  21 C21           -1.8879    -1.9671     0.1946 C.ar    
  22 C22           -1.7928    -2.6184     1.4160 C.ar    
  23 C23           -1.9661    -3.9865     1.4845 C.ar    
  24 C24           -2.2361    -4.7105     0.3308 C.ar    
  25 C25           -2.1629    -2.6893    -0.9578 C.ar    
  26 C26           -2.3316    -4.0581    -0.8912 C.ar    
  27 N27           -2.4116    -6.0986     0.3996 N.am    
  28 C28           -3.0453    -6.6462     1.4556 C.2     
  29 C29           -3.3136    -8.1288     1.4874 C.3     
  30 O30           -3.3997    -5.9458     2.3802 O.2     
  31 H31            0.3346    -2.0885    -0.5515 H       
  32 H32            3.0491     1.1711    -1.0312 H       
  33 H33           -1.9498     2.4471    -1.6563 H       
  34 H34           -2.7914     3.3144    -0.4892 H       
  35 H35            0.6150     3.7073    -0.5640 H       
  36 H36            3.2426     1.6916     0.7875 H       
  37 H37            5.5255     2.4891     1.2465 H       
  38 H38            4.5867     6.2442    -0.5478 H       
  39 H39           -1.5829    -2.0552     2.3133 H       
  40 H40           -1.8914    -4.4935     2.4352 H       
  41 H41           -2.2408    -2.1813    -1.9077 H       
  42 H42           -2.5412    -4.6208    -1.7889 H       
  43 H43           -2.0770    -6.6657    -0.3127 H       
  44 H44           -2.9260    -8.5878     0.5780 H       
  45 H45           -2.8212    -8.5686     2.3547 H       
  46 H46           -4.3878    -8.3023     1.5526 H       
@<TRIPOS>BOND
   1    1    2 ar
   2    1    6 ar
   3    1    7 1
   4    2    3 ar
   5    2   20 1
   6    3    4 ar
   7    3   31 1
   8    4    5 ar
   9    4   17 1
  10    5    6 ar
  11    5   32 1
  12    6   10 1
  13    7    8 2
  14    7    9 am
  15    9   33 1
  16    9   34 1
  17   10   11 1
  18   10   35 1
  19   11   13 ar
  20   11   12 ar
  21   12   16 ar
  22   12   18 1
  23   13   14 ar
  24   13   36 1
  25   14   15 ar
  26   14   37 1
  27   15   16 ar
  28   15   19 1
  29   16   38 1
  30   20   21 1
  31   21   22 ar
  32   21   25 ar
  33   22   23 ar
  34   22   39 1
  35   23   24 ar
  36   23   40 1
  37   24   26 ar
  38   24   27 1
  39   25   26 ar
  40   25   41 1
  41   26   42 1
  42   27   28 am
  43   27   43 1
  44   28   29 1
  45   28   30 2
  46   29   44 1
  47   29   45 1
  48   29   46 1

#	End of record

