#	Name: ASD01916606
#	Creating user name:	WinNT
#	Creation time:	15. 06. 2019 20:07

#	Modifying user name:	WinNT
#	Modification time:	15. 06. 2019 20:07

#	Program:	/corina/corina34_cracker 3.40 0067  02.08.2006

@<TRIPOS>MOLECULE
ASD01916606
  18   18    0    0    0
SMALL
NO_CHARGES


@<TRIPOS>ATOM
   1 C1            -0.0180     1.4763     0.0102 C.2     
   2 C2             0.0021    -0.0041     0.0020 C.ar    
   3 C3             1.2177    -0.6874    -0.0133 C.ar    
   4 C4             1.2295    -2.0693    -0.0208 C.ar    
   5 C5             0.0365    -2.7743    -0.0137 C.ar    
   6 C6            -1.1708    -2.1002     0.0009 C.ar    
   7 C7            -1.1944    -0.7203     0.0154 C.ar    
   8 N8             1.0994     2.1419     0.0031 N.2     
   9 N9            -1.2264     2.1523     0.0196 N.pl3   
  10 O10            1.0802     3.5577     0.0109 O.3     
  11 F11            2.4057    -2.7338    -0.0356 F       
  12 H12            2.1475    -0.1381    -0.0195 H       
  13 H13            0.0496    -3.8542    -0.0201 H       
  14 H14           -2.0974    -2.6549     0.0057 H       
  15 H15           -2.1384    -0.1958     0.0320 H       
  16 H16           -2.0598     1.6559     0.0208 H       
  17 H17           -1.2396     3.1222     0.0249 H       
  18 H18            1.9581     3.9630     0.0046 H       
@<TRIPOS>BOND
   1    1    2 1
   2    1    8 2
   3    1    9 1
   4    2    3 ar
   5    2    7 ar
   6    3    4 ar
   7    3   12 1
   8    4    5 ar
   9    4   11 1
  10    5    6 ar
  11    5   13 1
  12    6    7 ar
  13    6   14 1
  14    7   15 1
  15    8   10 1
  16    9   16 1
  17    9   17 1
  18   10   18 1

#	End of record

