#	Name: ASD00431368
#	Creating user name:	WinNT
#	Creation time:	15. 06. 2019 18:35

#	Modifying user name:	WinNT
#	Modification time:	15. 06. 2019 18:35

#	Program:	/corina/corina34_cracker 3.40 0067  02.08.2006

@<TRIPOS>MOLECULE
ASD00431368
  38   39    0    0    0
SMALL
NO_CHARGES


@<TRIPOS>ATOM
   1 C1            -0.1109     1.1937    -0.5957 C.2     
   2 N2             0.0000    -0.0079     0.0048 N.am    
   3 O3             0.8450     1.6765    -1.1698 O.2     
   4 O4            -1.2826     1.8565    -0.5640 O.3     
   5 C5             1.1925    -0.7370    -0.1014 C.ar    
   6 C6             1.1735    -2.1216     0.0165 C.ar    
   7 C7             2.3493    -2.8392    -0.0883 C.ar    
   8 C8             3.5485    -2.1775    -0.3112 C.ar    
   9 C9             3.5673    -0.7955    -0.4294 C.ar    
  10 C10            2.3918    -0.0771    -0.3301 C.ar    
  11 O11            4.7056    -2.8840    -0.4134 O.3     
  12 S12            6.1685    -4.7815    -1.6937 S.3     
  13 C13            4.8458    -3.7239    -1.4634 C.2     
  14 N14            3.9918    -3.8397    -2.4391 N.2     
  15 C15            4.2710    -4.6988    -3.3830 C.2     
  16 C16            5.4560    -5.3665    -3.1953 C.2     
  17 C17            6.0041    -6.3431    -4.0501 C.2     
  18 O18            7.0661    -6.8647    -3.7744 O.2     
  19 Cl19          -0.3268    -2.9490     0.2960 Cl      
  20 C20           -1.3292     3.1451    -1.2316 C.3     
  21 C21           -0.9996     2.9635    -2.7146 C.3     
  22 C22           -2.7307     3.7424    -1.0901 C.3     
  23 C23           -0.3065     4.0873    -0.5935 C.3     
  24 H24           -0.7453    -0.3680     0.5104 H       
  25 H25            2.3353    -3.9152     0.0037 H       
  26 H26            4.5011    -0.2813    -0.6029 H       
  27 H27            2.4064     0.9985    -0.4263 H       
  28 H28            3.6277    -4.8686    -4.2337 H       
  29 H29            5.4802    -6.6280    -4.9505 H       
  30 H30           -1.7282     2.2922    -3.1691 H       
  31 H31           -1.0345     3.9308    -3.2157 H       
  32 H32           -0.0011     2.5379    -2.8154 H       
  33 H33           -2.9655     3.8718    -0.0336 H       
  34 H34           -2.7657     4.7097    -1.5912 H       
  35 H35           -3.4593     3.0712    -1.5447 H       
  36 H36            0.6920     3.6618    -0.6943 H       
  37 H37           -0.3414     5.0547    -1.0946 H       
  38 H38           -0.5413     4.2168     0.4630 H       
@<TRIPOS>BOND
   1    1    2 am
   2    1    3 2
   3    1    4 1
   4    2    5 1
   5    2   24 1
   6    4   20 1
   7    5    6 ar
   8    5   10 ar
   9    6    7 ar
  10    6   19 1
  11    7    8 ar
  12    7   25 1
  13    8    9 ar
  14    8   11 1
  15    9   10 ar
  16    9   26 1
  17   10   27 1
  18   11   13 1
  19   12   13 1
  20   12   16 1
  21   13   14 2
  22   14   15 1
  23   15   16 2
  24   15   28 1
  25   16   17 1
  26   17   18 2
  27   17   29 1
  28   20   21 1
  29   20   23 1
  30   20   22 1
  31   21   30 1
  32   21   31 1
  33   21   32 1
  34   22   33 1
  35   22   34 1
  36   22   35 1
  37   23   36 1
  38   23   37 1
  39   23   38 1

#	End of record

