#	Name: ASD01028032
#	Creating user name:	WinNT
#	Creation time:	15. 06. 2019 18:56

#	Modifying user name:	WinNT
#	Modification time:	15. 06. 2019 18:56

#	Program:	/corina/corina34_cracker 3.40 0067  02.08.2006

@<TRIPOS>MOLECULE
ASD01028032
  64   68    0    0    0
SMALL
NO_CHARGES


@<TRIPOS>ATOM
   1 C1             0.0098     1.1217     0.3099 C.3     
   2 C2            -0.0124    -0.3782     0.6115 C.3     
   3 C3            -0.5258    -0.6125     2.0322 C.3     
   4 O4             1.2559     2.1681     2.4025 O.2     
   5 C5             1.9380     2.0789     1.4037 C.2     
   6 N6             1.4120     1.5809     0.2471 N.am    
   7 N7             3.6350     3.3746     2.5820 N.3     
   8 C8             3.3797     2.5164     1.4196 C.3     
   9 N9             3.1140     0.2715     4.8694 N.pl3   
  10 C10            4.1245     1.1503     5.3059 C.ar    
  11 C11            4.1183     2.4373     4.7801 C.ar    
  12 C12            3.0377     2.8255     3.8026 C.3     
  13 C13            5.0952     0.7729     6.2190 C.ar    
  14 C14            6.0705     1.6895     6.5983 C.ar    
  15 C15            6.0626     2.9696     6.0598 C.ar    
  16 C16            5.0882     3.3417     5.1523 C.ar    
  17 O17           -0.4995    -2.0099     2.3388 O.3     
  18 C18            0.2988    -2.3912     3.3730 C.ar    
  19 C19            1.2371    -1.5151     3.8419 C.ar    
  20 C20            2.0735    -1.8953     4.8976 C.ar    
  21 C21            3.0526    -1.0085     5.4193 C.ar    
  22 N22            3.8328    -1.4319     6.3909 N.ar    
  23 O23            5.3129    -0.4010     6.8780 O.3     
  24 C24            6.4721    -0.2333     7.7005 C.3     
  25 O25            6.9149     1.1116     7.4958 O.3     
  26 C26            0.1589    -3.6621     3.9480 C.ar    
  27 C27            0.9783    -4.0578     4.9834 C.ar    
  28 C28            1.9565    -3.1831     5.4712 C.ar    
  29 N29            2.7971    -3.5159     6.4632 N.ar    
  30 C30            3.6941    -2.6565     6.8851 C.ar    
  31 O31           -0.7933    -4.5111     3.4809 O.3     
  32 C32            2.1953     1.5056    -0.9886 C.3     
  33 C33            4.2830     1.2836     1.4913 C.3     
  34 C34            5.0747     3.6069     2.7588 C.3     
  35 C35           -0.8853    -5.7914     4.1088 C.3     
  36 H36           -0.4781     1.3084    -0.6467 H       
  37 H37           -0.5150     1.6600     1.0992 H       
  38 H38           -0.6689    -0.8810    -0.0986 H       
  39 H39            0.9961    -0.7813     0.5195 H       
  40 H40            0.1070    -0.0753     2.7386 H       
  41 H41           -1.5484    -0.2438     2.1125 H       
  42 H42            3.5994     3.0700     0.5067 H       
  43 H43            2.4720     0.5517     4.1984 H       
  44 H44            2.3912     3.5758     4.2578 H       
  45 H45            2.4453     1.9458     3.5508 H       
  46 H46            6.8226     3.6792     6.3519 H       
  47 H47            5.0876     4.3385     4.7365 H       
  48 H48            1.3329    -0.5345     3.3997 H       
  49 H49            6.2140    -0.3877     8.7482 H       
  50 H50            7.2505    -0.9343     7.3989 H       
  51 H51            0.8658    -5.0403     5.4175 H       
  52 H52            4.3583    -2.9629     7.6796 H       
  53 H53            3.1971     1.8955    -0.8081 H       
  54 H54            2.2626     0.4673    -1.3134 H       
  55 H55            1.7091     2.0980    -1.7637 H       
  56 H56            4.0708     0.7304     2.4063 H       
  57 H57            4.0949     0.6446     0.6285 H       
  58 H58            5.3269     1.5974     1.4903 H       
  59 H59            5.5505     3.6991     1.7825 H       
  60 H60            5.2276     4.5253     3.3257 H       
  61 H61            5.5143     2.7687     3.2995 H       
  62 H62            0.0607    -6.3209     3.9947 H       
  63 H63           -1.1033    -5.6615     5.1689 H       
  64 H64           -1.6833    -6.3686     3.6418 H       
@<TRIPOS>BOND
   1    1    2 1
   2    1    6 1
   3    1   36 1
   4    1   37 1
   5    2    3 1
   6    2   38 1
   7    2   39 1
   8    3   17 1
   9    3   40 1
  10    3   41 1
  11    4    5 2
  12    5    6 am
  13    5    8 1
  14    6   32 1
  15    7    8 1
  16    7   34 1
  17    7   12 1
  18    8   33 1
  19    8   42 1
  20    9   10 1
  21    9   21 1
  22    9   43 1
  23   10   11 ar
  24   10   13 ar
  25   11   12 1
  26   11   16 ar
  27   12   44 1
  28   12   45 1
  29   13   14 ar
  30   13   23 1
  31   14   15 ar
  32   14   25 1
  33   15   16 ar
  34   15   46 1
  35   16   47 1
  36   17   18 1
  37   18   19 ar
  38   18   26 ar
  39   19   20 ar
  40   19   48 1
  41   20   21 ar
  42   20   28 ar
  43   21   22 ar
  44   22   30 ar
  45   23   24 1
  46   24   25 1
  47   24   49 1
  48   24   50 1
  49   26   27 ar
  50   26   31 1
  51   27   28 ar
  52   27   51 1
  53   28   29 ar
  54   29   30 ar
  55   30   52 1
  56   31   35 1
  57   32   53 1
  58   32   54 1
  59   32   55 1
  60   33   56 1
  61   33   57 1
  62   33   58 1
  63   34   59 1
  64   34   60 1
  65   34   61 1
  66   35   62 1
  67   35   63 1
  68   35   64 1

#	End of record

