#	Name: ASD01911276
#	Creating user name:	WinNT
#	Creation time:	15. 06. 2019 19:57

#	Modifying user name:	WinNT
#	Modification time:	15. 06. 2019 19:57

#	Program:	/corina/corina34_cracker 3.40 0067  02.08.2006

@<TRIPOS>MOLECULE
ASD01911276
  41   44    0    0    0
SMALL
NO_CHARGES


@<TRIPOS>ATOM
   1 C1             0.4030     1.5229     0.6801 C.3     
   2 C2             0.2879    -0.0032     0.4811 C.3     
   3 N3             1.4444    -0.4271    -0.3216 N.am    
   4 C4             2.2530     0.7611    -0.6500 C.3     
   5 C5             1.9153     1.7892     0.4584 C.3     
   6 C6             1.7200    -1.6925    -0.6949 C.2     
   7 O7             2.6535    -1.9165    -1.4407 O.2     
   8 C8             0.8877    -2.8071    -0.1978 C.ar    
   9 C9             3.7209     0.4210    -0.6203 C.2     
  10 N10            4.6178     0.7674    -1.5097 N.2     
  11 C11            5.7850     0.2442    -1.0712 C.2     
  12 N12            5.5308    -0.3830     0.0476 N.2     
  13 O13            4.3532    -0.2859     0.3215 O.3     
  14 C14            7.1071     0.3598    -1.7358 C.ar    
  15 C15            8.2304    -0.2345    -1.1650 C.ar    
  16 C16            9.4584    -0.1247    -1.7862 C.ar    
  17 C17            9.5759     0.5738    -2.9736 C.ar    
  18 C18            8.4627     1.1677    -3.5464 C.ar    
  19 C19            7.2277     1.0581    -2.9353 C.ar    
  20 F20            8.5835     1.8498    -4.7063 F       
  21 C21            1.2657    -4.1281    -0.4456 C.ar    
  22 C22            0.4863    -5.1656     0.0206 C.ar    
  23 C23           -0.6713    -4.9001     0.7344 C.ar    
  24 C24           -1.0531    -3.5885     0.9844 C.ar    
  25 C25           -0.2769    -2.5431     0.5266 C.ar    
  26 F26           -1.4314    -5.9207     1.1884 F       
  27 F27           -2.1827    -3.3356     1.6809 F       
  28 H28           -0.1948     2.0544    -0.0604 H       
  29 H29            0.1060     1.8035     1.6906 H       
  30 H30            0.3041    -0.5053     1.4484 H       
  31 H31           -0.6362    -0.2396    -0.0463 H       
  32 H32            1.9730     1.1520    -1.6281 H       
  33 H33            2.0858     2.8082     0.1112 H       
  34 H34            2.4847     1.5869     1.3656 H       
  35 H35            8.1408    -0.7802    -0.2374 H       
  36 H36           10.3293    -0.5851    -1.3435 H       
  37 H37           10.5386     0.6572    -3.4560 H       
  38 H38            6.3600     1.5209    -3.3816 H       
  39 H39            2.1674    -4.3370    -1.0021 H       
  40 H40            0.7785    -6.1875    -0.1714 H       
  41 H41           -0.5737    -1.5230     0.7210 H       
@<TRIPOS>BOND
   1    1    2 1
   2    1    5 1
   3    1   28 1
   4    1   29 1
   5    2    3 1
   6    2   30 1
   7    2   31 1
   8    3    4 1
   9    3    6 am
  10    4    5 1
  11    4    9 1
  12    4   32 1
  13    5   33 1
  14    5   34 1
  15    6    7 2
  16    6    8 1
  17    8   21 ar
  18    8   25 ar
  19    9   10 2
  20    9   13 1
  21   10   11 1
  22   11   12 2
  23   11   14 1
  24   12   13 1
  25   14   15 ar
  26   14   19 ar
  27   15   16 ar
  28   15   35 1
  29   16   17 ar
  30   16   36 1
  31   17   18 ar
  32   17   37 1
  33   18   19 ar
  34   18   20 1
  35   19   38 1
  36   21   22 ar
  37   21   39 1
  38   22   23 ar
  39   22   40 1
  40   23   24 ar
  41   23   26 1
  42   24   25 ar
  43   24   27 1
  44   25   41 1

#	End of record

