#	Name: ASD00170026
#	Creating user name:	WinNT
#	Creation time:	15. 06. 2019 18:31

#	Modifying user name:	WinNT
#	Modification time:	15. 06. 2019 18:31

#	Program:	/corina/corina34_cracker 3.40 0067  02.08.2006

@<TRIPOS>MOLECULE
ASD00170026
  32   33    0    0    0
SMALL
NO_CHARGES


@<TRIPOS>ATOM
   1 C1            -0.7399     0.3039    -1.1226 C.2     
   2 C2            -0.0015    -0.0084    -0.0045 C.2     
   3 C3            -0.5670     0.5419     1.2094 C.2     
   4 C4            -1.6770     1.2327     1.0013 C.2     
   5 S5            -2.0913     1.2541    -0.7034 S.3     
   6 C6             1.2215    -0.8096    -0.0384 C.2     
   7 C7             2.5375    -0.1457    -0.1648 C.ar    
   8 C8             3.7114    -0.8965    -0.0889 C.ar    
   9 C9             4.9355    -0.2712    -0.2081 C.ar    
  10 C10            5.0008     1.0970    -0.4020 C.ar    
  11 C11            3.8405     1.8473    -0.4779 C.ar    
  12 C12            2.6102     1.2336    -0.3665 C.ar    
  13 O13            1.1567    -2.0232     0.0375 O.2     
  14 C14            0.0456     0.3473     2.5725 C.3     
  15 C15           -2.4750     1.9138     2.0831 C.3     
  16 N16           -0.4264    -0.0925    -2.4067 N.pl3   
  17 C17            6.2042    -1.0803    -0.1262 C.3     
  18 F18            6.5637    -1.5147    -1.4066 F       
  19 F19            7.2292    -0.2883     0.4023 F       
  20 F20            5.9976    -2.1891     0.7015 F       
  21 H21            3.6618    -1.9646     0.0633 H       
  22 H22            5.9615     1.5817    -0.4944 H       
  23 H23            3.8983     2.9152    -0.6287 H       
  24 H24            1.7054     1.8203    -0.4258 H       
  25 H25            0.7498     1.1548     2.7730 H       
  26 H26           -0.7398     0.3541     3.3282 H       
  27 H27            0.5700    -0.6078     2.6021 H       
  28 H28           -2.1114     2.9328     2.2158 H       
  29 H29           -3.5269     1.9375     1.7983 H       
  30 H30           -2.3638     1.3637     3.0175 H       
  31 H31            0.4032    -0.5645    -2.5798 H       
  32 H32           -1.0357     0.1008    -3.1364 H       
@<TRIPOS>BOND
   1    1    2 2
   2    1   16 1
   3    1    5 1
   4    2    3 1
   5    2    6 1
   6    3    4 2
   7    3   14 1
   8    4    5 1
   9    4   15 1
  10    6    7 1
  11    6   13 2
  12    7    8 ar
  13    7   12 ar
  14    8    9 ar
  15    8   21 1
  16    9   10 ar
  17    9   17 1
  18   10   11 ar
  19   10   22 1
  20   11   12 ar
  21   11   23 1
  22   12   24 1
  23   14   25 1
  24   14   26 1
  25   14   27 1
  26   15   28 1
  27   15   29 1
  28   15   30 1
  29   16   31 1
  30   16   32 1
  31   17   18 1
  32   17   19 1
  33   17   20 1

#	End of record

