#	Name: ASD03930192
#	Creating user name:	WinNT
#	Creation time:	15. 06. 2019 20:47

#	Modifying user name:	WinNT
#	Modification time:	15. 06. 2019 20:47

#	Program:	/corina/corina34_cracker 3.40 0067  02.08.2006

@<TRIPOS>MOLECULE
ASD03930192
  54   57    0    0    0
SMALL
NO_CHARGES


@<TRIPOS>ATOM
   1 S1            -0.0772     4.0236    -0.9978 S.o2    
   2 N2            -0.7564     2.5393    -1.3344 N.am    
   3 C3            -0.4944     1.9092    -2.6247 C.3     
   4 C4             0.9738     1.5717    -2.8350 C.3     
   5 O5             1.7783     2.7565    -2.8739 O.3     
   6 C6             2.3633     3.1107    -1.7016 C.ar    
   7 C7             1.6332     3.6776    -0.6660 C.ar    
   8 C8             3.7228     2.8878    -1.5127 C.ar    
   9 C9             4.3091     3.1886    -0.2994 C.ar    
  10 C10            3.5556     3.7143     0.7399 C.ar    
  11 C11            2.2000     3.9643     0.5477 C.ar    
  12 C12           -1.5392     1.9268    -0.4242 C.2     
  13 O13           -2.0313     0.8447    -0.6760 O.2     
  14 O14           -1.7760     2.5139     0.7640 O.3     
  15 O15            4.1375     3.9829     1.9390 O.3     
  16 C16            3.3383     4.3946     2.9579 C.ar    
  17 C17            3.1150     5.7467     3.1597 C.ar    
  18 C18            2.2942     6.1647     4.2065 C.ar    
  19 C19            1.7029     5.2177     5.0444 C.ar    
  20 C20            1.9318     3.8732     4.8348 C.ar    
  21 C21            2.7414     3.4596     3.7930 C.ar    
  22 S22            2.7135     8.9303     3.4726 S.3     
  23 C23            1.9017    10.0638     4.4618 C.2     
  24 N24            1.2301     9.4569     5.3826 N.2     
  25 C25            1.2829     8.1435     5.4005 C.2     
  26 C26            2.0513     7.6065     4.4286 C.2     
  27 O27           -0.1169     4.7753    -2.2030 O.2     
  28 O28           -0.6498     4.4687     0.2241 O.2     
  29 C29           -2.6283     1.7967     1.6954 C.3     
  30 C30           -1.9976     0.4421     2.0246 C.3     
  31 C31           -2.7810     2.6137     2.9799 C.3     
  32 C32           -4.0044     1.5784     1.0632 C.3     
  33 H33           -1.0784     0.9913    -2.6919 H       
  34 H34           -0.8158     2.5854    -3.4169 H       
  35 H35            1.3145     0.9354    -2.0183 H       
  36 H36            1.0853     1.0334    -3.7762 H       
  37 H37            4.3198     2.4792    -2.3146 H       
  38 H38            5.3653     3.0130    -0.1581 H       
  39 H39            1.6023     4.3795     1.3457 H       
  40 H40            3.5754     6.4749     2.5084 H       
  41 H41            1.0668     5.5372     5.8566 H       
  42 H42            1.4740     3.1416     5.4841 H       
  43 H43            2.9135     2.4058     3.6309 H       
  44 H44            1.9447    11.1354     4.3348 H       
  45 H45            0.7569     7.5453     6.1298 H       
  46 H46           -1.0173     0.5976     2.4750 H       
  47 H47           -2.6374    -0.0963     2.7238 H       
  48 H48           -1.8888    -0.1400     1.1095 H       
  49 H49           -3.2303     3.5787     2.7455 H       
  50 H50           -3.4208     2.0753     3.6791 H       
  51 H51           -1.8006     2.7692     3.4303 H       
  52 H52           -3.8956     0.9963     0.1481 H       
  53 H53           -4.6442     1.0400     1.7625 H       
  54 H54           -4.4537     2.5434     0.8288 H       
@<TRIPOS>BOND
   1    1    2 am
   2    1    7 1
   3    1   27 2
   4    1   28 2
   5    2    3 1
   6    2   12 am
   7    3    4 1
   8    3   33 1
   9    3   34 1
  10    4    5 1
  11    4   35 1
  12    4   36 1
  13    5    6 1
  14    6    7 ar
  15    6    8 ar
  16    7   11 ar
  17    8    9 ar
  18    8   37 1
  19    9   10 ar
  20    9   38 1
  21   10   11 ar
  22   10   15 1
  23   11   39 1
  24   12   13 2
  25   12   14 1
  26   14   29 1
  27   15   16 1
  28   16   17 ar
  29   16   21 ar
  30   17   18 ar
  31   17   40 1
  32   18   19 ar
  33   18   26 1
  34   19   20 ar
  35   19   41 1
  36   20   21 ar
  37   20   42 1
  38   21   43 1
  39   22   23 1
  40   22   26 1
  41   23   24 2
  42   23   44 1
  43   24   25 1
  44   25   26 2
  45   25   45 1
  46   29   30 1
  47   29   32 1
  48   29   31 1
  49   30   46 1
  50   30   47 1
  51   30   48 1
  52   31   49 1
  53   31   50 1
  54   31   51 1
  55   32   52 1
  56   32   53 1
  57   32   54 1

#	End of record

