#	Name: ASD05740016
#	Creating user name:	WinNT
#	Creation time:	15. 06. 2019 21:02

#	Modifying user name:	WinNT
#	Modification time:	15. 06. 2019 21:02

#	Program:	/corina/corina34_cracker 3.40 0067  02.08.2006

@<TRIPOS>MOLECULE
ASD05740016
  53   56    0    0    0
SMALL
NO_CHARGES


@<TRIPOS>ATOM
   1 C1            -0.0215     1.7128     0.1098 C.2     
   2 C2             0.8992     3.8387    -0.0904 C.ar    
   3 C3             1.8191     6.0133    -0.4858 C.ar    
   4 C4             0.5524     6.5758    -0.2897 C.ar    
   5 C5            -0.5479     5.7488     0.0038 C.ar    
   6 C6            -0.3625     4.3780     0.1015 C.ar    
   7 C7             0.3460     8.0220    -0.3897 C.2     
   8 C8            -0.9069     8.5071    -0.1884 C.2     
   9 C9            -1.9629     7.6207     0.1075 C.2     
  10 O10           -1.7680     6.2954     0.1930 O.3     
  11 C11           -1.1674     9.9885    -0.2806 C.3     
  12 C12           -1.6478    10.3287    -1.6678 C.ar    
  13 N13           -2.9409    10.3059    -1.9340 N.ar    
  14 O14           -3.0812     8.0688     0.2861 O.2     
  15 C15           -1.1892    10.9796    -3.9248 C.ar    
  16 C16           -2.5615    10.9376    -4.1635 C.ar    
  17 C17           -3.4118    10.5960    -3.1319 C.ar    
  18 O18            1.0793     2.4968     0.0052 O.3     
  19 N19           -0.2971    11.3198    -4.9395 N.am    
  20 S20           -0.7263    12.4448    -6.0764 S.o2    
  21 O21            0.3971    12.5124    -6.9440 O.2     
  22 O22           -1.9909    12.0009    -6.5487 O.2     
  23 C23            1.4925     8.9473    -0.7068 C.3     
  24 N24           -1.2423     2.1284    -0.0109 N.2     
  25 S25           -0.0002     0.0304     0.4131 S.3     
  26 C26           -1.7607    -0.0116     0.3626 C.2     
  27 C27           -2.1968     1.2248     0.1155 C.2     
  28 C28            1.9840     4.6625    -0.3864 C.ar    
  29 C29            3.3479     4.0573    -0.5975 C.3     
  30 C30           -0.9023    13.9891    -5.1413 C.3     
  31 C31           -1.3017    15.1188    -6.0927 C.3     
  32 C32           -0.7310    10.6659    -2.6432 C.ar    
  33 F33            0.5902    10.6926    -2.3622 F       
  34 H34            2.6641     6.6471    -0.7111 H       
  35 H35           -1.1990     3.7329     0.3262 H       
  36 H36           -1.9291    10.2694     0.4468 H       
  37 H37           -0.2467    10.5330    -0.0712 H       
  38 H38           -2.9541    11.1696    -5.1425 H       
  39 H39           -4.4770    10.5653    -3.3074 H       
  40 H40            0.5753    10.8978    -4.9800 H       
  41 H41            1.5702     9.0727    -1.7868 H       
  42 H42            1.3168     9.9166    -0.2402 H       
  43 H43            2.4196     8.5219    -0.3228 H       
  44 H44           -2.3786    -0.8867     0.4996 H       
  45 H45           -3.2458     1.4687     0.0349 H       
  46 H46            3.4777     3.8129    -1.6518 H       
  47 H47            4.1132     4.7712    -0.2932 H       
  48 H48            3.4392     3.1500    -0.0003 H       
  49 H49           -1.6719    13.8667    -4.3792 H       
  50 H50            0.0462    14.2347    -4.6636 H       
  51 H51           -2.2502    14.8732    -6.5703 H       
  52 H52           -1.4075    16.0468    -5.5307 H       
  53 H53           -0.5321    15.2412    -6.8547 H       
@<TRIPOS>BOND
   1    1   25 1
   2    1   18 1
   3    1   24 2
   4    2   18 1
   5    2   28 ar
   6    2    6 ar
   7    3    4 ar
   8    3   28 ar
   9    3   34 1
  10    4    5 ar
  11    4    7 1
  12    5    6 ar
  13    5   10 1
  14    6   35 1
  15    7    8 2
  16    7   23 1
  17    8    9 1
  18    8   11 1
  19    9   10 1
  20    9   14 2
  21   11   12 1
  22   11   36 1
  23   11   37 1
  24   12   13 ar
  25   12   32 ar
  26   13   17 ar
  27   15   16 ar
  28   15   19 1
  29   15   32 ar
  30   16   17 ar
  31   16   38 1
  32   17   39 1
  33   19   20 am
  34   19   40 1
  35   20   21 2
  36   20   22 2
  37   20   30 1
  38   23   41 1
  39   23   42 1
  40   23   43 1
  41   24   27 1
  42   25   26 1
  43   26   27 2
  44   26   44 1
  45   27   45 1
  46   28   29 1
  47   29   46 1
  48   29   47 1
  49   29   48 1
  50   30   31 1
  51   30   49 1
  52   30   50 1
  53   31   51 1
  54   31   52 1
  55   31   53 1
  56   32   33 1

#	End of record

