#	Name: ASD01028839
#	Creating user name:	WinNT
#	Creation time:	15. 06. 2019 18:58

#	Modifying user name:	WinNT
#	Modification time:	15. 06. 2019 18:58

#	Program:	/corina/corina34_cracker 3.40 0067  02.08.2006

@<TRIPOS>MOLECULE
ASD01028839
  45   49    0    0    0
SMALL
NO_CHARGES


@<TRIPOS>ATOM
   1 C1            -0.0157     1.3062     0.0092 C.ar    
   2 N2             0.0021    -0.0041     0.0020 N.ar    
   3 C3             1.1642     2.0563     0.0020 C.ar    
   4 C4             2.3769     1.4184    -0.0130 C.ar    
   5 C5             2.3864     0.0120    -0.0206 C.ar    
   6 C6             1.1522    -0.6848    -0.0126 C.ar    
   7 C7             3.5911    -0.7103    -0.0358 C.ar    
   8 C8             3.5596    -2.0712    -0.0428 C.ar    
   9 C9             2.3472    -2.7584    -0.0350 C.ar    
  10 C10            1.1616    -2.0909    -0.0202 C.ar    
  11 C11            4.8528    -2.8448    -0.0597 C.3     
  12 C12            5.2978    -3.1103     1.3554 C.2     
  13 N13            6.4118    -3.7765     1.7288 N.pl3   
  14 C14            6.4117    -3.7757     3.1029 C.2     
  15 N15            5.3248    -3.1253     3.4855 N.2     
  16 N16            4.6770    -2.7316     2.4449 N.2     
  17 N17            7.4485    -4.3972     1.0290 N.2     
  18 C18            8.4312    -4.9847     1.6755 C.2     
  19 C19            8.4594    -5.0008     3.0863 C.2     
  20 C20            7.4643    -4.4051     3.7945 C.2     
  21 C21            9.5228    -5.6387     0.9129 C.2     
  22 F22            4.6600    -4.0609    -0.7239 F       
  23 F23            5.8329    -2.1004    -0.7249 F       
  24 C24           10.6371    -6.3057     1.4595 C.2     
  25 N25           11.3708    -6.7455     0.4722 N.2     
  26 N26           10.7600    -6.3804    -0.7336 N.pl3   
  27 C27            9.6277    -5.7092    -0.4464 C.2     
  28 C28           11.2623    -6.6819    -2.0763 C.3     
  29 O29            1.1084     3.4142     0.0093 O.3     
  30 C30           -0.1903     4.0102     0.0244 C.3     
  31 H31           -0.9658     1.8197     0.0165 H       
  32 H32            3.2995     1.9799    -0.0191 H       
  33 H33            4.5369    -0.1889    -0.0424 H       
  34 H34            2.3487    -3.8383    -0.0412 H       
  35 H35            0.2311    -2.6390    -0.0147 H       
  36 H36            9.2728    -5.4875     3.6039 H       
  37 H37            7.4808    -4.4140     4.8743 H       
  38 H38           10.8479    -6.4314     2.5113 H       
  39 H39            8.9325    -5.2957    -1.1621 H       
  40 H40           10.8586    -7.6381    -2.4090 H       
  41 H41           10.9514    -5.8967    -2.7654 H       
  42 H42           12.3508    -6.7352    -2.0535 H       
  43 H43           -0.7431     3.6991    -0.8620 H       
  44 H44           -0.7265     3.6902     0.9178 H       
  45 H45           -0.0919     5.0957     0.0289 H       
@<TRIPOS>BOND
   1    1    2 ar
   2    1    3 ar
   3    1   31 1
   4    2    6 ar
   5    3    4 ar
   6    3   29 1
   7    4    5 ar
   8    4   32 1
   9    5    6 ar
  10    5    7 ar
  11    6   10 ar
  12    7    8 ar
  13    7   33 1
  14    8    9 ar
  15    8   11 1
  16    9   10 ar
  17    9   34 1
  18   10   35 1
  19   11   12 1
  20   11   22 1
  21   11   23 1
  22   12   13 1
  23   12   16 2
  24   13   14 1
  25   13   17 1
  26   14   15 2
  27   14   20 1
  28   15   16 1
  29   17   18 2
  30   18   19 1
  31   18   21 1
  32   19   20 2
  33   19   36 1
  34   20   37 1
  35   21   24 1
  36   21   27 2
  37   24   25 2
  38   24   38 1
  39   25   26 1
  40   26   27 1
  41   26   28 1
  42   27   39 1
  43   28   40 1
  44   28   41 1
  45   28   42 1
  46   29   30 1
  47   30   43 1
  48   30   44 1
  49   30   45 1

#	End of record

