#	Name: ASD01420078
#	Creating user name:	WinNT
#	Creation time:	15. 06. 2019 19:20

#	Modifying user name:	WinNT
#	Modification time:	15. 06. 2019 19:20

#	Program:	/corina/corina34_cracker 3.40 0067  02.08.2006

@<TRIPOS>MOLECULE
ASD01420078
  64   67    0    0    0
SMALL
NO_CHARGES


@<TRIPOS>ATOM
   1 C1            -0.0144     1.2120     0.0087 C.2     
   2 O2             0.1295     0.0133     0.1556 O.2     
   3 C3             1.0485     3.4380    -0.4778 C.3     
   4 N4             1.0607     2.0007    -0.1879 N.am    
   5 C5             2.4668     1.5860    -0.1520 C.3     
   6 C6             3.3110     2.8046    -0.4268 C.ar    
   7 C7             4.6888     2.9646    -0.5065 C.ar    
   8 C8             5.2269     4.2133    -0.7775 C.ar    
   9 C9             4.3910     5.2968    -0.9679 C.ar    
  10 C10            3.0211     5.1356    -0.8883 C.ar    
  11 C11            2.4804     3.8896    -0.6178 C.ar    
  12 O12            5.5089     1.8974    -0.3183 O.3     
  13 C13            6.9148     2.1347    -0.4146 C.3     
  14 C14            7.6705     0.8261    -0.1753 C.3     
  15 C15            9.1757     1.0802    -0.2784 C.3     
  16 N16            9.9012    -0.1763    -0.0486 N.3     
  17 C17           11.3279    -0.0274    -0.3710 C.3     
  18 C18           12.0550    -1.3387    -0.0614 C.3     
  19 O19           11.4423    -2.4024    -0.7951 O.3     
  20 C20           10.0527    -2.5760    -0.5051 C.3     
  21 C21            9.3052    -1.2773    -0.8192 C.3     
  22 C22           -1.3642     1.8010     0.0396 C.ar    
  23 C23           -2.2645     1.4466     1.0560 C.ar    
  24 C24           -3.5306     2.0051     1.0778 C.ar    
  25 C25           -3.9066     2.9115     0.0972 C.ar    
  26 C26           -3.0150     3.2639    -0.9112 C.ar    
  27 C27           -1.7516     2.7199    -0.9404 C.ar    
  28 C28           -3.4328     4.2494    -1.9720 C.3     
  29 C29           -2.5003     5.4619    -1.9374 C.3     
  30 C30           -3.3524     3.5833    -3.3471 C.3     
  31 O31           -5.1493     3.4565     0.1214 O.3     
  32 O32           -1.8952     0.5594     2.0135 O.3     
  33 H33            0.5103     3.6228    -1.4075 H       
  34 H34            0.5698     3.9760     0.3404 H       
  35 H35            2.7082     1.1835     0.8318 H       
  36 H36            2.6488     0.8304    -0.9162 H       
  37 H37            6.2978     4.3389    -0.8392 H       
  38 H38            4.8086     6.2703    -1.1787 H       
  39 H39            2.3697     5.9841    -1.0372 H       
  40 H40            7.1519     2.5148    -1.4083 H       
  41 H41            7.2117     2.8681     0.3352 H       
  42 H42            7.4333     0.4461     0.8184 H       
  43 H43            7.3736     0.0928    -0.9251 H       
  44 H44            9.4128     1.4602    -1.2721 H       
  45 H45            9.4726     1.8135     0.4715 H       
  46 H46           11.4391     0.2094    -1.4291 H       
  47 H47           11.7547     0.7760     0.2293 H       
  48 H48           13.1019    -1.2517    -0.3522 H       
  49 H49           11.9894    -1.5479     1.0063 H       
  50 H50            9.6514    -3.3840    -1.1169 H       
  51 H51            9.9288    -2.8213     0.5497 H       
  52 H52            8.2556    -1.3863    -0.5461 H       
  53 H53            9.3841    -1.0605    -1.8845 H       
  54 H54           -4.2264     1.7349     1.8584 H       
  55 H55           -1.0610     2.9994    -1.7223 H       
  56 H56           -4.4566     4.5730    -1.7844 H       
  57 H57           -1.4765     5.1383    -2.1250 H       
  58 H58           -2.8024     6.1747    -2.7046 H       
  59 H59           -2.5576     5.9365    -0.9578 H       
  60 H60           -2.3285     3.2598    -3.5347 H       
  61 H61           -4.0167     2.7195    -3.3718 H       
  62 H62           -3.6545     4.2961    -4.1143 H       
  63 H63           -5.2085     4.2786     0.6270 H       
  64 H64           -1.4865     0.9660     2.7899 H       
@<TRIPOS>BOND
   1    1    2 2
   2    1    4 am
   3    1   22 1
   4    3    4 1
   5    3   11 1
   6    3   33 1
   7    3   34 1
   8    4    5 1
   9    5    6 1
  10    5   35 1
  11    5   36 1
  12    6    7 ar
  13    6   11 ar
  14    7    8 ar
  15    7   12 1
  16    8    9 ar
  17    8   37 1
  18    9   10 ar
  19    9   38 1
  20   10   11 ar
  21   10   39 1
  22   12   13 1
  23   13   14 1
  24   13   40 1
  25   13   41 1
  26   14   15 1
  27   14   42 1
  28   14   43 1
  29   15   16 1
  30   15   44 1
  31   15   45 1
  32   16   17 1
  33   16   21 1
  34   17   18 1
  35   17   46 1
  36   17   47 1
  37   18   19 1
  38   18   48 1
  39   18   49 1
  40   19   20 1
  41   20   21 1
  42   20   50 1
  43   20   51 1
  44   21   52 1
  45   21   53 1
  46   22   23 ar
  47   22   27 ar
  48   23   24 ar
  49   23   32 1
  50   24   25 ar
  51   24   54 1
  52   25   26 ar
  53   25   31 1
  54   26   27 ar
  55   26   28 1
  56   27   55 1
  57   28   29 1
  58   28   30 1
  59   28   56 1
  60   29   57 1
  61   29   58 1
  62   29   59 1
  63   30   60 1
  64   30   61 1
  65   30   62 1
  66   31   63 1
  67   32   64 1

#	End of record

