#	Name: ASD03140002
#	Creating user name:	WinNT
#	Creation time:	15. 06. 2019 20:33

#	Modifying user name:	WinNT
#	Modification time:	15. 06. 2019 20:33

#	Program:	/corina/corina34_cracker 3.40 0067  02.08.2006

@<TRIPOS>MOLECULE
ASD03140002
  35   37    0    0    0
SMALL
NO_CHARGES


@<TRIPOS>ATOM
   1 C1            -0.0167     1.3793     0.0096 C.ar    
   2 C2             0.0021    -0.0041     0.0020 C.ar    
   3 C3             1.2098    -0.6789    -0.0131 C.ar    
   4 C4             2.3967     0.0292    -0.0207 C.ar    
   5 C5             2.3773     1.4115    -0.0126 C.ar    
   6 C6             1.1709     2.0863     0.0021 C.ar    
   7 C7             7.0610     1.2988    -0.8059 C.ar    
   8 C8             6.3786     1.8335    -1.8828 C.ar    
   9 C9             7.0237     2.6920    -2.7533 C.ar    
  10 C10            8.3514     3.0163    -2.5475 C.ar    
  11 C11            9.0347     2.4819    -1.4697 C.ar    
  12 C12            8.3884     1.6231    -0.5985 C.ar    
  13 N13            3.3003     5.1900    -3.5041 N.2     
  14 N14            3.9524     3.9591    -3.3142 N.pl3   
  15 C15            3.6570     3.5921    -2.0458 C.2     
  16 N16            2.8937     4.5344    -1.5380 N.2     
  17 N17            2.6921     5.4639    -2.4010 N.2     
  18 Cl18          -1.4892    -0.8928     0.0121 Cl      
  19 C19            3.6719     2.1830    -0.0203 C.3     
  20 N20            4.0784     2.4408    -1.4040 N.pl3   
  21 C21            4.9311     1.4799    -2.1081 C.3     
  22 Cl22          10.7025     2.8883    -1.2108 Cl      
  23 H23           -0.9592     1.9066     0.0170 H       
  24 H24            1.2250    -1.7588    -0.0187 H       
  25 H25            3.3395    -0.4974    -0.0325 H       
  26 H26            1.1564     3.1662     0.0080 H       
  27 H27            6.5553     0.6314    -0.1239 H       
  28 H28            6.4902     3.1092    -3.5946 H       
  29 H29            8.8555     3.6865    -3.2280 H       
  30 H30            8.9212     1.2058     0.2432 H       
  31 H31            4.4971     3.4761    -3.9553 H       
  32 H32            3.5332     3.1305     0.5002 H       
  33 H33            4.4443     1.6015     0.4830 H       
  34 H34            4.7110     1.5125    -3.1751 H       
  35 H35            4.7387     0.4767    -1.7279 H       
@<TRIPOS>BOND
   1    1    2 ar
   2    1    6 ar
   3    1   23 1
   4    2    3 ar
   5    2   18 1
   6    3    4 ar
   7    3   24 1
   8    4    5 ar
   9    4   25 1
  10    5    6 ar
  11    5   19 1
  12    6   26 1
  13    7    8 ar
  14    7   12 ar
  15    7   27 1
  16    8    9 ar
  17    8   21 1
  18    9   10 ar
  19    9   28 1
  20   10   11 ar
  21   10   29 1
  22   11   12 ar
  23   11   22 1
  24   12   30 1
  25   13   14 1
  26   13   17 2
  27   14   15 1
  28   14   31 1
  29   15   16 2
  30   15   20 1
  31   16   17 1
  32   19   20 1
  33   19   32 1
  34   19   33 1
  35   20   21 1
  36   21   34 1
  37   21   35 1

#	End of record

