#	Name: ASD03731786
#	Creating user name:	WinNT
#	Creation time:	15. 06. 2019 20:46

#	Modifying user name:	WinNT
#	Modification time:	15. 06. 2019 20:46

#	Program:	/corina/corina34_cracker 3.40 0067  02.08.2006

@<TRIPOS>MOLECULE
ASD03731786
  37   38    0    0    0
SMALL
NO_CHARGES


@<TRIPOS>ATOM
   1 C1             0.0450     1.4457     0.5247 C.2     
   2 C2             0.0484    -0.0232     0.3810 C.ar    
   3 C3             1.2551    -0.7077     0.2111 C.ar    
   4 C4             1.2540    -2.0789     0.0779 C.ar    
   5 C5             0.0535    -2.7816     0.1119 C.ar    
   6 C6            -1.1478    -2.1037     0.2802 C.ar    
   7 C7            -1.1541    -0.7335     0.4203 C.ar    
   8 O8             1.0927     2.0619     0.4953 O.2     
   9 N9            -1.1201     2.1046     0.6829 N.am    
  10 S10           -1.1239     3.7528     0.8441 S.o2    
  11 O11           -2.4952     4.0851     1.0130 O.2     
  12 O12           -0.1766     4.0065     1.8724 O.2     
  13 C13           -0.5123     4.3649    -0.7502 C.3     
  14 O14            0.0558    -4.1322    -0.0201 O.3     
  15 C15           -1.1308    -4.7865     0.0919 C.ar    
  16 C16           -1.9514    -4.9389    -1.0224 C.ar    
  17 C17           -3.1594    -5.6064    -0.9029 C.ar    
  18 C18           -3.5479    -6.1191     0.3211 C.ar    
  19 C19           -2.7335    -5.9675     1.4275 C.ar    
  20 C20           -1.5234    -5.3082     1.3140 C.ar    
  21 O21           -1.5683    -4.4333    -2.2252 O.3     
  22 C22           -2.4605    -4.6273    -3.3244 C.3     
  23 Cl23           2.7518    -2.9308    -0.1332 Cl      
  24 H24            2.1870    -0.1624     0.1840 H       
  25 H25           -2.0777    -2.6525     0.3054 H       
  26 H26           -2.0880    -0.2082     0.5556 H       
  27 H27           -1.9563     1.6135     0.7023 H       
  28 H28           -1.1779     4.0324    -1.5467 H       
  29 H29           -0.4815     5.4544    -0.7335 H       
  30 H30            0.4902     3.9759    -0.9284 H       
  31 H31           -3.7979    -5.7260    -1.7657 H       
  32 H32           -4.4901    -6.6390     0.4129 H       
  33 H33           -3.0408    -6.3692     2.3818 H       
  34 H34           -0.8865    -5.1957     2.1789 H       
  35 H35           -2.6078    -5.6947    -3.4889 H       
  36 H36           -3.4190    -4.1584    -3.1015 H       
  37 H37           -2.0355    -4.1767    -4.2213 H       
@<TRIPOS>BOND
   1    1    2 1
   2    1    8 2
   3    1    9 am
   4    2    3 ar
   5    2    7 ar
   6    3    4 ar
   7    3   24 1
   8    4    5 ar
   9    4   23 1
  10    5    6 ar
  11    5   14 1
  12    6    7 ar
  13    6   25 1
  14    7   26 1
  15    9   10 am
  16    9   27 1
  17   10   11 2
  18   10   12 2
  19   10   13 1
  20   13   28 1
  21   13   29 1
  22   13   30 1
  23   14   15 1
  24   15   16 ar
  25   15   20 ar
  26   16   17 ar
  27   16   21 1
  28   17   18 ar
  29   17   31 1
  30   18   19 ar
  31   18   32 1
  32   19   20 ar
  33   19   33 1
  34   20   34 1
  35   21   22 1
  36   22   35 1
  37   22   36 1
  38   22   37 1

#	End of record

