#	Name: ASD00170007
#	Creating user name:	WinNT
#	Creation time:	15. 06. 2019 18:31

#	Modifying user name:	WinNT
#	Modification time:	15. 06. 2019 18:31

#	Program:	/corina/corina34_cracker 3.40 0067  02.08.2006

@<TRIPOS>MOLECULE
ASD00170007
  35   37    0    0    0
SMALL
NO_CHARGES


@<TRIPOS>ATOM
   1 C1             4.2658     1.4734    -3.6612 C.ar    
   2 C2             4.2917     0.0885    -3.6730 C.ar    
   3 C3             4.1119    -0.6232    -2.4983 C.ar    
   4 C4             3.9054     0.0440    -1.3094 C.ar    
   5 C5             3.8782     1.4399    -1.2911 C.ar    
   6 C6             4.0606     2.1518    -2.4784 C.ar    
   7 Cl7            4.5500    -0.7586    -5.1661 Cl      
   8 C8             2.6287     4.4546     0.0886 C.2     
   9 C9             3.7467     3.6223     0.0183 C.2     
  10 C10            3.6568     2.1613    -0.0197 C.2     
  11 O11            3.3996     1.5406     0.9957 O.2     
  12 C12            2.9311     5.7661     0.1136 C.2     
  13 S13            4.6719     5.9888     0.0475 S.3     
  14 C14            4.9452     4.3061    -0.0120 C.2     
  15 N15            6.1862     3.7137    -0.0802 N.pl3   
  16 C16            1.9716     6.8269     0.1834 C.1     
  17 C17            1.1850     7.6965     0.2407 C.1     
  18 C18            0.2256     8.7573     0.3105 C.ar    
  19 C19            0.6508    10.0892     0.3310 C.ar    
  20 C20           -0.2792    11.1051     0.3984 C.ar    
  21 C21           -1.6303    10.8091     0.4462 C.ar    
  22 C22           -2.0590     9.4933     0.4268 C.ar    
  23 C23           -1.1415     8.4666     0.3529 C.ar    
  24 H24            4.4110     2.0230    -4.5795 H       
  25 H25            4.1331    -1.7029    -2.5137 H       
  26 H26            3.7646    -0.5119    -0.3943 H       
  27 H27            4.0409     3.2316    -2.4703 H       
  28 H28            1.6155     4.0816     0.1159 H       
  29 H29            6.9855     4.2630    -0.0978 H       
  30 H30            6.2612     2.7471    -0.1106 H       
  31 H31            1.7049    10.3217     0.2944 H       
  32 H32            0.0476    12.1343     0.4142 H       
  33 H33           -2.3539    11.6091     0.4992 H       
  34 H34           -3.1150     9.2703     0.4651 H       
  35 H35           -1.4777     7.4404     0.3329 H       
@<TRIPOS>BOND
   1    1    2 ar
   2    1    6 ar
   3    1   24 1
   4    2    3 ar
   5    2    7 1
   6    3    4 ar
   7    3   25 1
   8    4    5 ar
   9    4   26 1
  10    5    6 ar
  11    5   10 1
  12    6   27 1
  13    8    9 1
  14    8   12 2
  15    8   28 1
  16    9   10 1
  17    9   14 2
  18   10   11 2
  19   12   13 1
  20   12   16 1
  21   13   14 1
  22   14   15 1
  23   15   29 1
  24   15   30 1
  25   16   17 3
  26   17   18 1
  27   18   19 ar
  28   18   23 ar
  29   19   20 ar
  30   19   31 1
  31   20   21 ar
  32   20   32 1
  33   21   22 ar
  34   21   33 1
  35   22   23 ar
  36   22   34 1
  37   23   35 1

#	End of record

