#	Name: ASD03320160
#	Creating user name:	WinNT
#	Creation time:	15. 06. 2019 20:36

#	Modifying user name:	WinNT
#	Modification time:	15. 06. 2019 20:36

#	Program:	/corina/corina34_cracker 3.40 0067  02.08.2006

@<TRIPOS>MOLECULE
ASD03320160
  48   51    0    0    0
SMALL
NO_CHARGES


@<TRIPOS>ATOM
   1 C1            -0.0183     1.4706     0.0178 C.2     
   2 C2             0.0010    -0.0047     0.0159 C.ar    
   3 C3             1.2186    -0.6983     0.0086 C.ar    
   4 C4             1.1842    -2.0898     0.0069 C.ar    
   5 C5            -0.0624    -2.7403     0.0127 C.ar    
   6 N6            -1.1890    -2.0440     0.0195 N.ar    
   7 C7            -1.1938    -0.7273     0.0271 C.ar    
   8 O8             1.0269     2.0924     0.0131 O.2     
   9 N9            -1.1942     2.1292     0.0193 N.am    
  10 C10           -2.1784     4.2695    -0.5319 C.ar    
  11 C11           -1.2149     3.5257     0.1327 C.ar    
  12 C12           -0.2676     4.1840     0.9154 C.ar    
  13 C13           -0.3258     5.5629     0.9993 C.ar    
  14 C14           -1.3210     6.2431     0.3046 C.ar    
  15 N15           -2.2050     5.5845    -0.4293 N.ar    
  16 S16           -1.4065     8.0003     0.4029 S.3     
  17 C17           -2.8321     8.3988    -0.6458 C.3     
  18 F18           -3.9756     7.7754    -0.1348 F       
  19 F19           -3.0250     9.7843    -0.6638 F       
  20 F20           -2.5952     7.9439    -1.9474 F       
  21 N21            2.6839    -4.0142     0.7013 N.pl3   
  22 N22            3.9901    -4.4251     0.4061 N.2     
  23 C23            4.5139    -3.5715    -0.4367 C.2     
  24 C24            3.5689    -2.5836    -0.7144 C.2     
  25 C25            2.4394    -2.8721    -0.0012 C.2     
  26 N26           -0.1127    -4.1221     0.0107 N.3     
  27 C27           -1.5075    -4.6001     0.0175 C.3     
  28 C28           -1.6847    -5.5109    -1.2156 C.3     
  29 C29           -0.2322    -5.9525    -1.5355 C.3     
  30 C30            0.5687    -4.6753    -1.1790 C.3     
  31 O31           -2.4976    -6.6418    -0.8957 O.3     
  32 H32            2.1590    -0.1672     0.0039 H       
  33 H33           -2.1354    -0.1986     0.0376 H       
  34 H34           -2.0261     1.6365    -0.0582 H       
  35 H35           -2.9128     3.7668    -1.1437 H       
  36 H36            0.4938     3.6299     1.4442 H       
  37 H37            0.3921     6.1051     1.5969 H       
  38 H38            2.0633    -4.4641     1.2958 H       
  39 H39            5.5111    -3.6232    -0.8480 H       
  40 H40            3.7058    -1.7404    -1.3753 H       
  41 H41           -1.7007    -5.1671     0.9282 H       
  42 H42           -2.1902    -3.7528    -0.0463 H       
  43 H43           -2.1102    -4.9525    -2.0493 H       
  44 H44            0.0687    -6.7903    -0.9066 H       
  45 H45           -0.1230    -6.1998    -2.5914 H       
  46 H46            0.5326    -3.9625    -2.0028 H       
  47 H47            1.6016    -4.9293    -0.9408 H       
  48 H48           -2.6399    -7.2462    -1.6370 H       
@<TRIPOS>BOND
   1    1    2 1
   2    1    8 2
   3    1    9 am
   4    2    3 ar
   5    2    7 ar
   6    3    4 ar
   7    3   32 1
   8    4    5 ar
   9    4   25 1
  10    5    6 ar
  11    5   26 1
  12    6    7 ar
  13    7   33 1
  14    9   11 1
  15    9   34 1
  16   10   11 ar
  17   10   15 ar
  18   10   35 1
  19   11   12 ar
  20   12   13 ar
  21   12   36 1
  22   13   14 ar
  23   13   37 1
  24   14   15 ar
  25   14   16 1
  26   16   17 1
  27   17   18 1
  28   17   19 1
  29   17   20 1
  30   21   22 1
  31   21   25 1
  32   21   38 1
  33   22   23 2
  34   23   24 1
  35   23   39 1
  36   24   25 2
  37   24   40 1
  38   26   27 1
  39   26   30 1
  40   27   28 1
  41   27   41 1
  42   27   42 1
  43   28   29 1
  44   28   31 1
  45   28   43 1
  46   29   30 1
  47   29   44 1
  48   29   45 1
  49   30   46 1
  50   30   47 1
  51   31   48 1

#	End of record

