#	Name: ASD02030317
#	Creating user name:	WinNT
#	Creation time:	15. 06. 2019 20:15

#	Modifying user name:	WinNT
#	Modification time:	15. 06. 2019 20:15

#	Program:	/corina/corina34_cracker 3.40 0067  02.08.2006

@<TRIPOS>MOLECULE
ASD02030317
  53   57    0    0    0
SMALL
NO_CHARGES


@<TRIPOS>ATOM
   1 N1             0.0024     0.7494    -0.7496 N.am    
   2 C2            -0.0275    -0.6914    -0.4468 C.3     
   3 C3            -0.8862    -0.9128     0.8034 C.3     
   4 N4            -2.1913    -0.2656     0.6157 N.am    
   5 C5            -2.2311     1.1803     0.3396 C.3     
   6 C6            -1.2814     1.4606    -0.8261 C.3     
   7 C7             1.1689     1.3956    -0.9447 C.2     
   8 C8             2.4499     0.6892    -0.7316 C.2     
   9 N9             3.6449     1.1428    -1.0433 N.2     
  10 N10            2.5997    -0.5288    -0.1792 N.2     
  11 C11            3.8807    -0.7964    -0.1690 C.2     
  12 N12            4.5219     0.2585    -0.7127 N.pl3   
  13 C13            5.9074     0.3731    -0.8888 C.ar    
  14 O14            1.1677     2.5594    -1.2959 O.2     
  15 C15           -3.3306    -0.9815     0.6940 C.2     
  16 C16           -4.6399    -0.2890     0.7256 C.ar    
  17 O17           -3.2838    -2.1949     0.7388 O.2     
  18 C18           -5.8141    -1.0302     0.6325 C.ar    
  19 C19            6.4427     1.5171    -1.4641 C.ar    
  20 C20            7.8112     1.6271    -1.6362 C.ar    
  21 C21            8.6450     0.5969    -1.2347 C.ar    
  22 C22            8.1124    -0.5433    -0.6619 C.ar    
  23 C23            6.7476    -0.6556    -0.4828 C.ar    
  24 F24            8.3341     2.7398    -2.1964 F       
  25 C25           -1.2902     2.8579    -1.4389 C.3     
  26 C26           -1.8890     1.6781    -2.2089 C.3     
  27 N27           -4.6822     1.0329     0.8479 N.ar    
  28 C28           -5.8274     1.6871     0.8804 C.ar    
  29 C29           -7.0390     1.0072     0.7872 C.ar    
  30 C30           -7.0345    -0.3710     0.6635 C.ar    
  31 O31           -5.8246     3.0379     1.0066 O.3     
  32 C32           -4.5504     3.6783     1.0981 C.3     
  33 H33           -0.4600    -1.2329    -1.2881 H       
  34 H34            0.9861    -1.0473    -0.2620 H       
  35 H35           -1.0293    -1.9816     0.9620 H       
  36 H36           -0.3863    -0.4794     1.6697 H       
  37 H37           -3.2451     1.4774     0.0719 H       
  38 H38           -1.9039     1.7334     1.2200 H       
  39 H39            4.3412    -1.6973     0.2088 H       
  40 H40           -5.7757    -2.1053     0.5369 H       
  41 H41            5.7920     2.3201    -1.7774 H       
  42 H42            9.7130     0.6840    -1.3696 H       
  43 H43            8.7649    -1.3455    -0.3504 H       
  44 H44            6.3331    -1.5468    -0.0353 H       
  45 H45           -1.9820     3.5877    -1.0184 H       
  46 H46           -0.3400     3.2590    -1.7915 H       
  47 H47           -1.3326     1.3031    -3.0680 H       
  48 H48           -2.9746     1.6319    -2.2948 H       
  49 H49           -7.9726     1.5495     0.8149 H       
  50 H50           -7.9608    -0.9213     0.5896 H       
  51 H51           -4.6910     4.7548     1.1951 H       
  52 H52           -4.0163     3.3015     1.9704 H       
  53 H53           -3.9721     3.4669     0.1987 H       
@<TRIPOS>BOND
   1    1    2 1
   2    1    7 am
   3    1    6 1
   4    2    3 1
   5    2   33 1
   6    2   34 1
   7    3    4 1
   8    3   35 1
   9    3   36 1
  10    4    5 1
  11    4   15 am
  12    5    6 1
  13    5   37 1
  14    5   38 1
  15    6   25 1
  16    6   26 1
  17    7    8 1
  18    7   14 2
  19    8    9 2
  20    8   10 1
  21    9   12 1
  22   10   11 2
  23   11   12 1
  24   11   39 1
  25   12   13 1
  26   13   19 ar
  27   13   23 ar
  28   15   16 1
  29   15   17 2
  30   16   27 ar
  31   16   18 ar
  32   18   30 ar
  33   18   40 1
  34   19   20 ar
  35   19   41 1
  36   20   21 ar
  37   20   24 1
  38   21   22 ar
  39   21   42 1
  40   22   23 ar
  41   22   43 1
  42   23   44 1
  43   25   26 1
  44   25   45 1
  45   25   46 1
  46   26   47 1
  47   26   48 1
  48   27   28 ar
  49   28   29 ar
  50   28   31 1
  51   29   30 ar
  52   29   49 1
  53   30   50 1
  54   31   32 1
  55   32   51 1
  56   32   52 1
  57   32   53 1

#	End of record

