#	Name: ASD01150341
#	Creating user name:	WinNT
#	Creation time:	15. 06. 2019 19:04

#	Modifying user name:	WinNT
#	Modification time:	15. 06. 2019 19:04

#	Program:	/corina/corina34_cracker 3.40 0067  02.08.2006

@<TRIPOS>MOLECULE
ASD01150341
  67   71    0    0    0
SMALL
NO_CHARGES


@<TRIPOS>ATOM
   1 N1            -0.0183     1.3924     0.0165 N.pl3   
   2 C2            -0.0049     0.0028     0.1595 C.2     
   3 C3            -1.3325    -0.4017     0.0939 C.2     
   4 N4            -2.0835     0.6897    -0.0781 N.2     
   5 C5            -1.3197     1.7612    -0.1205 C.2     
   6 C6             1.1251    -0.8209     0.3342 C.2     
   7 C7             1.0948     2.2430     0.0197 C.ar    
   8 C8             2.0088     2.1966    -1.0247 C.ar    
   9 C9             3.1049     3.0369    -1.0189 C.ar    
  10 C10            3.2927     3.9236     0.0255 C.ar    
  11 C11            2.3845     3.9718     1.0671 C.ar    
  12 C12            1.2833     3.1381     1.0643 C.ar    
  13 N13           -1.7677     3.0514    -0.2867 N.3     
  14 C14           -2.3891     3.2270    -1.6061 C.3     
  15 C15           -2.6965     3.4286     0.7871 C.3     
  16 O16            0.9888    -2.0259     0.4463 O.2     
  17 O17            2.3592    -0.2741     0.3772 O.3     
  18 C18            3.4592    -1.1684     0.5568 C.3     
  19 C19            3.4942    -2.1719    -0.5977 C.3     
  20 C20            4.7654    -0.3721     0.5801 C.3     
  21 C21            3.2956    -1.9189     1.8800 C.3     
  22 N22           -1.7963    -1.7080     0.1900 N.am    
  23 C23           -3.1175    -1.9617     0.1095 C.2     
  24 O24           -3.9039    -1.0472    -0.0472 O.2     
  25 C25           -3.6089    -3.3460     0.2113 C.2     
  26 N26           -2.7947    -4.3792     0.3829 N.2     
  27 C27           -3.3663    -5.5430     0.4561 C.2     
  28 S28           -5.1082    -5.3490     0.2958 S.3     
  29 C29           -4.9231    -3.6558     0.1425 C.2     
  30 C30           -2.6635    -6.8301     0.6443 C.ar    
  31 C31           -3.3859    -8.0236     0.7085 C.ar    
  32 C32           -2.7242    -9.2155     0.8837 C.ar    
  33 C33           -1.3395    -9.2528     1.0067 C.ar    
  34 C34           -0.6200    -8.0600     0.9383 C.ar    
  35 C35           -1.2721    -6.8625     0.7535 C.ar    
  36 C36           -3.2166   -10.6473     0.9727 C.3     
  37 C37           -1.9105   -11.4487     0.7605 C.3     
  38 O38           -0.8969   -10.5264     1.1947 O.3     
  39 H39            1.8628     1.5041    -1.8404 H       
  40 H40            3.8163     3.0011    -1.8307 H       
  41 H41            4.1506     4.5796     0.0277 H       
  42 H42            2.5343     4.6649     1.8817 H       
  43 H43            0.5743     3.1763     1.8781 H       
  44 H44           -3.2363     2.5478    -1.7021 H       
  45 H45           -2.7344     4.2556    -1.7112 H       
  46 H46           -1.6579     3.0080    -2.3842 H       
  47 H47           -2.2174     3.2721     1.7535 H       
  48 H48           -2.9666     4.4793     0.6814 H       
  49 H49           -3.5946     2.8144     0.7231 H       
  50 H50            3.6107    -1.6373    -1.5404 H       
  51 H51            4.3332    -2.8541    -0.4607 H       
  52 H52            2.5636    -2.7393    -0.6143 H       
  53 H53            4.7404     0.3428     1.4026 H       
  54 H54            5.6044    -1.0543     0.7171 H       
  55 H55            4.8819     0.1625    -0.3626 H       
  56 H56            2.3651    -2.4862     1.8634 H       
  57 H57            4.1347    -2.6011     2.0170 H       
  58 H58            3.2707    -1.2040     2.7025 H       
  59 H59           -1.1691    -2.4374     0.3150 H       
  60 H60           -5.7272    -2.9477     0.0073 H       
  61 H61           -4.4622    -8.0100     0.6210 H       
  62 H62            0.4563    -8.0768     1.0264 H       
  63 H63           -0.7066    -5.9439     0.7018 H       
  64 H64           -3.6440   -10.8519     1.9543 H       
  65 H65           -3.9374   -10.8611     0.1835 H       
  66 H66           -1.9045   -12.3475     1.3771 H       
  67 H67           -1.7785   -11.7003    -0.2919 H       
@<TRIPOS>BOND
   1    1    2 1
   2    1    7 1
   3    1    5 1
   4    2    3 2
   5    2    6 1
   6    3    4 1
   7    3   22 1
   8    4    5 2
   9    5   13 1
  10    6   16 2
  11    6   17 1
  12    7    8 ar
  13    7   12 ar
  14    8    9 ar
  15    8   39 1
  16    9   10 ar
  17    9   40 1
  18   10   11 ar
  19   10   41 1
  20   11   12 ar
  21   11   42 1
  22   12   43 1
  23   13   14 1
  24   13   15 1
  25   14   44 1
  26   14   45 1
  27   14   46 1
  28   15   47 1
  29   15   48 1
  30   15   49 1
  31   17   18 1
  32   18   19 1
  33   18   20 1
  34   18   21 1
  35   19   50 1
  36   19   51 1
  37   19   52 1
  38   20   53 1
  39   20   54 1
  40   20   55 1
  41   21   56 1
  42   21   57 1
  43   21   58 1
  44   22   23 am
  45   22   59 1
  46   23   24 2
  47   23   25 1
  48   25   26 1
  49   25   29 2
  50   26   27 2
  51   27   28 1
  52   27   30 1
  53   28   29 1
  54   29   60 1
  55   30   31 ar
  56   30   35 ar
  57   31   32 ar
  58   31   61 1
  59   32   33 ar
  60   32   36 1
  61   33   34 ar
  62   33   38 1
  63   34   35 ar
  64   34   62 1
  65   35   63 1
  66   36   37 1
  67   36   64 1
  68   36   65 1
  69   37   38 1
  70   37   66 1
  71   37   67 1

#	End of record

