#	Name: ASD01915818
#	Creating user name:	WinNT
#	Creation time:	15. 06. 2019 20:06

#	Modifying user name:	WinNT
#	Modification time:	15. 06. 2019 20:06

#	Program:	/corina/corina34_cracker 3.40 0067  02.08.2006

@<TRIPOS>MOLECULE
ASD01915818
  41   44    0    0    0
SMALL
NO_CHARGES


@<TRIPOS>ATOM
   1 C1            -0.0045     1.4583     0.2036 C.2     
   2 N2             0.0577     0.1023    -0.0275 N.pl3   
   3 C3            -1.1576    -0.6827    -0.2753 C.3     
   4 C4            -2.3312    -0.0442     0.4656 C.3     
   5 N5            -2.4044     1.3988     0.2637 N.am    
   6 C6            -1.2904     2.1701     0.2527 C.2     
   7 C7             1.2799     1.8953     0.3676 C.2     
   8 C8             2.0733     0.7478     0.2348 C.2     
   9 N9             1.2770    -0.2708     0.0078 N.2     
  10 C10            3.5760     0.6929     0.3346 C.3     
  11 O11            4.0847     2.0039     0.5888 O.3     
  12 C12            5.4326     2.1304     0.7074 C.ar    
  13 O13           -1.3508     3.3849     0.2814 O.2     
  14 C14            5.9946     3.3745     0.9544 C.ar    
  15 C15            6.2484     1.0147     0.5874 C.ar    
  16 C16            7.6183     1.1460     0.7083 C.ar    
  17 C17            8.1764     2.3879     0.9488 C.ar    
  18 C18            7.3651     3.5004     1.0745 C.ar    
  19 C19           -3.6512     1.9988     0.0770 C.2     
  20 C20           -4.8335     1.3722     0.1707 C.2     
  21 C21           -5.9362     2.1785    -0.0560 C.2     
  22 C22           -5.6554     3.4520    -0.3324 C.2     
  23 S23           -3.9137     3.6944    -0.3099 S.3     
  24 C24           -6.6765     4.5234    -0.6162 C.3     
  25 H25           -1.3682    -0.6994    -1.3447 H       
  26 H26           -1.0120    -1.7017     0.0833 H       
  27 H27           -3.2582    -0.4966     0.1133 H       
  28 H28           -2.2263    -0.2457     1.5317 H       
  29 H29            1.6114     2.9054     0.5577 H       
  30 H30            3.8620     0.0279     1.1495 H       
  31 H31            3.9889     0.3182    -0.6020 H       
  32 H32            5.3613     4.2438     1.0523 H       
  33 H33            5.8129     0.0444     0.3999 H       
  34 H34            8.2538     0.2777     0.6153 H       
  35 H35            9.2476     2.4885     1.0430 H       
  36 H36            7.8034     4.4695     1.2620 H       
  37 H37           -4.9186     0.3213     0.4044 H       
  38 H38           -6.9481     1.8035    -0.0125 H       
  39 H39           -6.9636     5.0081     0.3170 H       
  40 H40           -6.2487     5.2629    -1.2930 H       
  41 H41           -7.5558     4.0741    -1.0777 H       
@<TRIPOS>BOND
   1    1    2 1
   2    1    7 2
   3    1    6 1
   4    2    3 1
   5    2    9 1
   6    3    4 1
   7    3   25 1
   8    3   26 1
   9    4    5 1
  10    4   27 1
  11    4   28 1
  12    5    6 am
  13    5   19 1
  14    6   13 2
  15    7    8 1
  16    7   29 1
  17    8    9 2
  18    8   10 1
  19   10   11 1
  20   10   30 1
  21   10   31 1
  22   11   12 1
  23   12   14 ar
  24   12   15 ar
  25   14   18 ar
  26   14   32 1
  27   15   16 ar
  28   15   33 1
  29   16   17 ar
  30   16   34 1
  31   17   18 ar
  32   17   35 1
  33   18   36 1
  34   19   20 2
  35   19   23 1
  36   20   21 1
  37   20   37 1
  38   21   22 2
  39   21   38 1
  40   22   23 1
  41   22   24 1
  42   24   39 1
  43   24   40 1
  44   24   41 1

#	End of record

