#	Name: ASD01412056
#	Creating user name:	WinNT
#	Creation time:	15. 06. 2019 19:19

#	Modifying user name:	WinNT
#	Modification time:	15. 06. 2019 19:19

#	Program:	/corina/corina34_cracker 3.40 0067  02.08.2006

@<TRIPOS>MOLECULE
ASD01412056
  55   58    0    0    0
SMALL
NO_CHARGES


@<TRIPOS>ATOM
   1 C1            -0.0169     1.3935     0.0097 C.ar    
   2 C2             0.0021    -0.0041     0.0020 C.ar    
   3 C3            -1.1787    -0.7231     0.0094 C.ar    
   4 C4            -2.3991    -0.0564     0.0246 C.ar    
   5 C5            -2.4158     1.3499     0.0324 C.ar    
   6 C6            -1.2188     2.0694     0.0305 C.ar    
   7 N7            -3.5824    -0.7656     0.0316 N.pl3   
   8 C8            -4.7831    -0.1729     0.0458 C.2     
   9 C9            -4.9253     1.1998     0.0541 C.2     
  10 C10           -3.7168     2.0404     0.0485 C.2     
  11 O11           -3.7897     3.2571     0.0558 O.2     
  12 C12           -3.5229    -2.2293     0.0226 C.3     
  13 C13           -3.4892    -2.7394     1.4403 C.ar    
  14 C14           -4.6700    -3.0220     2.1012 C.ar    
  15 C15           -4.6398    -3.4899     3.4013 C.ar    
  16 C16           -3.4273    -3.6753     4.0414 C.ar    
  17 C17           -2.2458    -3.3923     3.3795 C.ar    
  18 C18           -2.2772    -2.9299     2.0774 C.ar    
  19 Cl19          -3.3885    -4.2624     5.6747 Cl      
  20 C20           -6.2610     1.8123     0.0687 C.2     
  21 O21           -6.3870     3.1544     0.0767 O.3     
  22 O22           -7.2523     1.1086     0.0736 O.2     
  23 C23           -7.7367     3.6897     0.0911 C.3     
  24 C24           -7.6798     5.1956     0.0983 C.ar    
  25 C25           -7.6640     5.8922    -1.0956 C.ar    
  26 C26           -7.6119     7.2733    -1.0896 C.ar    
  27 C27           -7.5754     7.9587     0.1117 C.ar    
  28 C28           -7.5913     7.2610     1.3063 C.ar    
  29 C29           -7.6492     5.8801     1.2990 C.ar    
  30 Cl30          -7.5094     9.6934     0.1201 Cl      
  31 O31            1.1525     2.0883     0.0023 O.3     
  32 C32            1.0599     3.5143     0.0108 C.3     
  33 O33            1.1905    -0.6613    -0.0133 O.3     
  34 C34            1.1420    -2.0894    -0.0205 C.3     
  35 H35           -1.1534    -1.8028     0.0030 H       
  36 H36           -1.2345     3.1492     0.0368 H       
  37 H37           -5.6697    -0.7896     0.0506 H       
  38 H38           -4.4021    -2.6256    -0.4853 H       
  39 H39           -2.6237    -2.5532    -0.5015 H       
  40 H40           -5.6164    -2.8769     1.6015 H       
  41 H41           -5.5624    -3.7103     3.9177 H       
  42 H42           -1.2991    -3.5369     3.8787 H       
  43 H43           -1.3550    -2.7090     1.5606 H       
  44 H44           -8.2715     3.3506    -0.7961 H       
  45 H45           -8.2562     3.3414     0.9838 H       
  46 H46           -7.6921     5.3571    -2.0333 H       
  47 H47           -7.5992     7.8174    -2.0224 H       
  48 H48           -7.5629     7.7955     2.2443 H       
  49 H49           -7.6615     5.3353     2.2315 H       
  50 H50            2.0619     3.9435     0.0035 H       
  51 H51            0.5152     3.8483    -0.8722 H       
  52 H52            0.5322     3.8388     0.9076 H       
  53 H53            2.1567    -2.4873    -0.0327 H       
  54 H54            0.6250    -2.4399     0.8728 H       
  55 H55            0.6074    -2.4304    -0.9070 H       
@<TRIPOS>BOND
   1    1    2 ar
   2    1   31 1
   3    1    6 ar
   4    2    3 ar
   5    2   33 1
   6    3    4 ar
   7    3   35 1
   8    4    5 ar
   9    4    7 1
  10    5    6 ar
  11    5   10 1
  12    6   36 1
  13    7    8 1
  14    7   12 1
  15    8    9 2
  16    8   37 1
  17    9   10 1
  18    9   20 1
  19   10   11 2
  20   12   13 1
  21   12   38 1
  22   12   39 1
  23   13   14 ar
  24   13   18 ar
  25   14   15 ar
  26   14   40 1
  27   15   16 ar
  28   15   41 1
  29   16   17 ar
  30   16   19 1
  31   17   18 ar
  32   17   42 1
  33   18   43 1
  34   20   21 1
  35   20   22 2
  36   21   23 1
  37   23   24 1
  38   23   44 1
  39   23   45 1
  40   24   25 ar
  41   24   29 ar
  42   25   26 ar
  43   25   46 1
  44   26   27 ar
  45   26   47 1
  46   27   28 ar
  47   27   30 1
  48   28   29 ar
  49   28   48 1
  50   29   49 1
  51   31   32 1
  52   32   50 1
  53   32   51 1
  54   32   52 1
  55   33   34 1
  56   34   53 1
  57   34   54 1
  58   34   55 1

#	End of record

