#	Name: ASD01470052
#	Creating user name:	WinNT
#	Creation time:	15. 06. 2019 19:21

#	Modifying user name:	WinNT
#	Modification time:	15. 06. 2019 19:21

#	Program:	/corina/corina34_cracker 3.40 0067  02.08.2006

@<TRIPOS>MOLECULE
ASD01470052
  24   26    0    0    0
SMALL
NO_CHARGES


@<TRIPOS>ATOM
   1 N1            -0.0177     1.2966     0.0847 N.2     
   2 C2             0.0010    -0.0048     0.0391 C.2     
   3 N3            -1.0854    -0.8336    -0.0659 N.am    
   4 C4            -0.8875    -2.1410    -0.0993 C.2     
   5 O5            -1.8008    -2.9373    -0.1915 O.2     
   6 C6             0.5274    -2.5614    -0.0167 C.2     
   7 C7             1.0294    -3.8486    -0.0288 C.2     
   8 C8             2.4420    -4.2609    -0.1461 C.2     
   9 O9             3.3988    -3.5165    -0.2517 O.2     
  10 N10            2.4844    -5.6038    -0.1151 N.am    
  11 C11            1.2117    -6.1481     0.0143 C.ar    
  12 C12            0.2695    -5.1115     0.0793 C.ar    
  13 C13           -1.0861    -5.4005     0.2113 C.ar    
  14 C14           -1.5020    -6.7147     0.2784 C.ar    
  15 C15           -0.5739    -7.7410     0.2149 C.ar    
  16 C16            0.7730    -7.4651     0.0887 C.ar    
  17 S17            1.4365    -1.0420     0.0931 S.3     
  18 H18            0.8132     1.7913     0.1599 H       
  19 H19           -1.9826    -0.4683    -0.1144 H       
  20 H20            3.2991    -6.1267    -0.1758 H       
  21 H21           -1.8090    -4.5997     0.2615 H       
  22 H22           -2.5525    -6.9433     0.3808 H       
  23 H23           -0.9068    -8.7670     0.2683 H       
  24 H24            1.4865    -8.2744     0.0399 H       
@<TRIPOS>BOND
   1    1    2 2
   2    1   18 1
   3    2    3 1
   4    2   17 1
   5    3    4 am
   6    3   19 1
   7    4    5 2
   8    4    6 1
   9    6    7 2
  10    6   17 1
  11    7    8 1
  12    7   12 1
  13    8    9 2
  14    8   10 am
  15   10   11 1
  16   10   20 1
  17   11   12 ar
  18   11   16 ar
  19   12   13 ar
  20   13   14 ar
  21   13   21 1
  22   14   15 ar
  23   14   22 1
  24   15   16 ar
  25   15   23 1
  26   16   24 1

#	End of record

