#	Name: ASD02508288
#	Creating user name:	WinNT
#	Creation time:	15. 06. 2019 20:24

#	Modifying user name:	WinNT
#	Modification time:	15. 06. 2019 20:24

#	Program:	/corina/corina34_cracker 3.40 0067  02.08.2006

@<TRIPOS>MOLECULE
ASD02508288
  46   48    0    0    0
SMALL
NO_CHARGES


@<TRIPOS>ATOM
   1 C1            -0.0713     1.3041     0.3829 C.ar    
   2 C2            -0.0630    -0.0705     0.1478 C.ar    
   3 C3            -1.2585    -0.7658     0.0557 C.ar    
   4 C4            -2.4569    -0.0935     0.1975 C.ar    
   5 C5            -2.4661     1.2708     0.4305 C.ar    
   6 C6            -1.2786     1.9692     0.5288 C.ar    
   7 S7            -3.9779    -0.9752     0.0809 S.o2    
   8 N8            -4.7830    -0.3909    -1.2431 N.am    
   9 C9            -4.2718    -0.6115    -2.5257 C.ar    
  10 O10            1.2204     1.7133     0.4239 O.3     
  11 C11            2.0242     0.6568     0.2253 C.2     
  12 N12            1.2755    -0.4505     0.0528 N.am    
  13 O13           -3.6389    -2.3225    -0.2180 O.2     
  14 O14           -4.7469    -0.6007     1.2156 O.2     
  15 O15            3.2394     0.6931     0.2043 O.2     
  16 C16            1.7762    -1.8056    -0.1905 C.3     
  17 C17           -5.1128    -1.0375    -3.5458 C.ar    
  18 C18           -3.7780     1.9966     0.5830 C.3     
  19 C19           -2.9239    -0.3995    -2.7829 C.ar    
  20 C20           -2.4211    -0.6176    -4.0510 C.ar    
  21 C21           -4.6058    -1.2542    -4.8119 C.ar    
  22 C22           -5.5177    -1.7164    -5.9191 C.3     
  23 C23           -3.2601    -1.0472    -5.0649 C.ar    
  24 F24           -2.7664    -1.2595    -6.3045 F       
  25 C25            1.9834    -2.5205     1.1463 C.3     
  26 O26            0.7216    -2.6943     1.7941 O.3     
  27 C27            0.8034    -3.3558     3.0581 C.3     
  28 H28           -1.2532    -1.8302    -0.1267 H       
  29 H29           -1.2909     3.0337     0.7111 H       
  30 H30           -5.6091     0.1044    -1.1288 H       
  31 H31            1.0525    -2.3582    -0.7897 H       
  32 H32            2.7248    -1.7520    -0.7247 H       
  33 H33           -6.1622    -1.1994    -3.3488 H       
  34 H34           -4.1206     1.9150     1.6145 H       
  35 H35           -3.6437     3.0476     0.3268 H       
  36 H36           -4.5185     1.5523    -0.0821 H       
  37 H37           -2.2691    -0.0640    -1.9923 H       
  38 H38           -1.3728    -0.4525    -4.2516 H       
  39 H39           -5.9343    -0.8497    -6.4323 H       
  40 H40           -4.9515    -2.3207    -6.6278 H       
  41 H41           -6.3270    -2.3130    -5.4981 H       
  42 H42            2.4388    -3.4950     0.9704 H       
  43 H43            2.6380    -1.9226     1.7804 H       
  44 H44           -0.1953    -3.4490     3.4847 H       
  45 H45            1.2344    -4.3477     2.9219 H       
  46 H46            1.4336    -2.7752     3.7319 H       
@<TRIPOS>BOND
   1    1    2 ar
   2    1   10 1
   3    1    6 ar
   4    2    3 ar
   5    2   12 1
   6    3    4 ar
   7    3   28 1
   8    4    5 ar
   9    4    7 1
  10    5    6 ar
  11    5   18 1
  12    6   29 1
  13    7    8 am
  14    7   13 2
  15    7   14 2
  16    8    9 1
  17    8   30 1
  18    9   17 ar
  19    9   19 ar
  20   10   11 1
  21   11   12 am
  22   11   15 2
  23   12   16 1
  24   16   25 1
  25   16   31 1
  26   16   32 1
  27   17   21 ar
  28   17   33 1
  29   18   34 1
  30   18   35 1
  31   18   36 1
  32   19   20 ar
  33   19   37 1
  34   20   23 ar
  35   20   38 1
  36   21   22 1
  37   21   23 ar
  38   22   39 1
  39   22   40 1
  40   22   41 1
  41   23   24 1
  42   25   26 1
  43   25   42 1
  44   25   43 1
  45   26   27 1
  46   27   44 1
  47   27   45 1
  48   27   46 1

#	End of record

