#	Name: ASD03730117
#	Creating user name:	WinNT
#	Creation time:	15. 06. 2019 20:44

#	Modifying user name:	WinNT
#	Modification time:	15. 06. 2019 20:44

#	Program:	/corina/corina34_cracker 3.40 0067  02.08.2006

@<TRIPOS>MOLECULE
ASD03730117
  60   65    0    0    0
SMALL
NO_CHARGES


@<TRIPOS>ATOM
   1 C1            -0.0184     1.5028     0.0103 C.2     
   2 C2             0.0021    -0.0041     0.0020 C.3     
   3 O3             1.0236     2.1234     0.0037 O.2     
   4 N4            -1.1946     2.1607     0.0195 N.am    
   5 C5            -1.2145     3.6256     0.0275 C.3     
   6 C6            -2.6637     4.1159     0.0371 C.3     
   7 N7            -2.6836     5.5847     0.0451 N.3     
   8 C8            -4.0419     6.0939    -0.1837 C.3     
   9 C9            -4.0511     7.6159    -0.0245 C.3     
  10 C10           -3.0774     8.2354    -1.0308 C.3     
  11 C11           -1.6801     7.6524    -0.8024 C.3     
  12 C12           -1.7396     6.1293    -0.9391 C.3     
  13 O13            6.2459     2.8794     2.0976 O.3     
  14 C14            7.6663     2.8233     2.3260 C.3     
  15 O15            7.8789     1.4934     2.8350 O.3     
  16 C16            6.8679     0.7368     2.3152 C.ar    
  17 C17            5.8636     1.5896     1.8629 C.ar    
  18 C18            6.7212    -0.6329     2.1884 C.ar    
  19 C19            5.5735    -1.1688     1.6121 C.ar    
  20 C20            4.5736    -0.3071     1.1716 C.ar    
  21 C21            4.7194     1.0592     1.2910 C.ar    
  22 O22            5.2412    -2.4710     1.3795 O.3     
  23 C23            3.4673    -1.1739     0.6323 C.3     
  24 C24            3.8195    -2.5682     1.1684 C.3     
  25 N25            1.3897    -0.4735    -0.0138 N.am    
  26 C26            2.1130    -0.7212     1.0965 C.2     
  27 C27            3.4026    -1.1504    -0.8661 C.ar    
  28 C28            4.3041    -1.4527    -1.8622 C.ar    
  29 C29            3.9367    -1.3289    -3.1903 C.ar    
  30 C30            2.6624    -0.9003    -3.5148 C.ar    
  31 C31            1.7562    -0.5954    -2.5207 C.ar    
  32 C32            2.1172    -0.7175    -1.1811 C.ar    
  33 O33            1.7424    -0.6020     2.2452 O.2     
  34 H34           -0.4983    -0.3791     0.8948 H       
  35 H35           -0.5153    -0.3696    -0.8850 H       
  36 H36           -2.0280     1.6644     0.0207 H       
  37 H37           -0.7014     3.9910     0.9171 H       
  38 H38           -0.7098     4.0007    -0.8628 H       
  39 H39           -3.1768     3.7505    -0.8525 H       
  40 H40           -3.1683     3.7408     0.9274 H       
  41 H41           -4.3627     5.8323    -1.1920 H       
  42 H42           -4.7235     5.6488     0.5411 H       
  43 H43           -5.0561     7.9951    -0.2098 H       
  44 H44           -3.7436     7.8778     0.9879 H       
  45 H45           -3.4064     8.0064    -2.0444 H       
  46 H46           -3.0484     9.3161    -0.8917 H       
  47 H47           -0.9911     8.0576    -1.5435 H       
  48 H48           -1.3353     7.9148     0.1978 H       
  49 H49           -0.7491     5.7099    -0.7629 H       
  50 H50           -2.0712     5.8675    -1.9439 H       
  51 H51            8.2103     2.9676     1.3925 H       
  52 H52            7.9653     3.5680     3.0637 H       
  53 H53            7.5027    -1.2907     2.5390 H       
  54 H54            3.9391     1.7171     0.9379 H       
  55 H55            3.5894    -3.3363     0.4301 H       
  56 H56            3.3012    -2.7643     2.1070 H       
  57 H57            5.2987    -1.7870    -1.6065 H       
  58 H58            4.6432    -1.5667    -3.9717 H       
  59 H59            2.3756    -0.8035    -4.5515 H       
  60 H60            0.7631    -0.2608    -2.7820 H       
@<TRIPOS>BOND
   1    1    2 1
   2    1    3 2
   3    1    4 am
   4    2   25 1
   5    2   34 1
   6    2   35 1
   7    4    5 1
   8    4   36 1
   9    5    6 1
  10    5   37 1
  11    5   38 1
  12    6    7 1
  13    6   39 1
  14    6   40 1
  15    7    8 1
  16    7   12 1
  17    8    9 1
  18    8   41 1
  19    8   42 1
  20    9   10 1
  21    9   43 1
  22    9   44 1
  23   10   11 1
  24   10   45 1
  25   10   46 1
  26   11   12 1
  27   11   47 1
  28   11   48 1
  29   12   49 1
  30   12   50 1
  31   13   14 1
  32   13   17 1
  33   14   15 1
  34   14   51 1
  35   14   52 1
  36   15   16 1
  37   16   17 ar
  38   16   18 ar
  39   17   21 ar
  40   18   19 ar
  41   18   53 1
  42   19   20 ar
  43   19   22 1
  44   20   21 ar
  45   20   23 1
  46   21   54 1
  47   22   24 1
  48   23   24 1
  49   23   26 1
  50   23   27 1
  51   24   55 1
  52   24   56 1
  53   25   26 am
  54   25   32 1
  55   26   33 2
  56   27   28 ar
  57   27   32 ar
  58   28   29 ar
  59   28   57 1
  60   29   30 ar
  61   29   58 1
  62   30   31 ar
  63   30   59 1
  64   31   32 ar
  65   31   60 1

#	End of record

