#	Name: ASD03540602
#	Creating user name:	WinNT
#	Creation time:	15. 06. 2019 20:43

#	Modifying user name:	WinNT
#	Modification time:	15. 06. 2019 20:43

#	Program:	/corina/corina34_cracker 3.40 0067  02.08.2006

@<TRIPOS>MOLECULE
ASD03540602
  53   57    0    0    0
SMALL
NO_CHARGES


@<TRIPOS>ATOM
   1 S1            -0.0207     1.6762     0.0113 S.o2    
   2 N2             0.0021    -0.0041     0.0020 N.am    
   3 C3             1.2387    -0.5546    -0.0127 C.2     
   4 N4             2.3901     0.0976    -0.0198 N.am    
   5 C5             2.6568     1.4537    -0.0150 C.ar    
   6 C6             1.6079     2.3816    -0.0005 C.ar    
   7 C7             3.9650     1.9318    -0.0239 C.ar    
   8 C8             4.2047     3.2871    -0.0184 C.ar    
   9 C9             3.1467     4.1998    -0.0038 C.ar    
  10 C10            1.8265     3.7244     0.0046 C.ar    
  11 C11            3.4155     5.6510     0.0025 C.2     
  12 O12            2.4909     6.4404     0.0153 O.2     
  13 N13            4.6858     6.1011    -0.0059 N.am    
  14 C14            4.9526     7.5416     0.0004 C.3     
  15 O15            1.2974    -1.7690    -0.0198 O.2     
  16 O16           -0.6091     2.0558    -1.2252 O.2     
  17 O17           -0.5853     2.0425     1.2628 O.2     
  18 C18            3.5783    -0.7592    -0.0348 C.3     
  19 C19           -1.2211    -0.8103     0.0098 C.3     
  20 C20           -1.5864    -1.1826    -1.4040 C.ar    
  21 C21           -1.0966    -2.3496    -1.9600 C.ar    
  22 C22           -1.4317    -2.6910    -3.2570 C.ar    
  23 C23           -2.2568    -1.8657    -3.9978 C.ar    
  24 C24           -2.7473    -0.6992    -3.4415 C.ar    
  25 C25           -2.4158    -0.3599    -2.1430 C.ar    
  26 C26            6.4411     7.7768    -0.0112 C.ar    
  27 C27            7.0839     7.8871    -1.1990 C.ar    
  28 C28            8.4839     8.1085    -1.2270 C.ar    
  29 C29            9.1990     8.2122     0.0425 C.ar    
  30 C30            8.4617     8.0873     1.2468 C.ar    
  31 C31            7.1231     7.8815     1.2011 C.ar    
  32 N32            9.3207     8.2481    -2.2425 N.2     
  33 S33           10.7608     8.4717    -1.6990 S.3     
  34 N34           10.4892     8.4176    -0.1684 N.2     
  35 H35            4.7926     1.2379    -0.0349 H       
  36 H36            5.2222     3.6493    -0.0251 H       
  37 H37            0.9959     4.4146     0.0163 H       
  38 H38            5.4235     5.4712    -0.0160 H       
  39 H39            4.5058     7.9976    -0.8831 H       
  40 H40            4.5213     7.9871     0.8968 H       
  41 H41            3.2719    -1.8053    -0.0373 H       
  42 H42            4.1655    -0.5505    -0.9291 H       
  43 H43            4.1815    -0.5594     0.8508 H       
  44 H44           -1.0553    -1.7163     0.5928 H       
  45 H45           -2.0326    -0.2350     0.4553 H       
  46 H46           -0.4519    -2.9944    -1.3813 H       
  47 H47           -1.0484    -3.6024    -3.6916 H       
  48 H48           -2.5180    -2.1321    -5.0113 H       
  49 H49           -3.3918    -0.0542    -4.0204 H       
  50 H50           -2.8020     0.5496    -1.7072 H       
  51 H51            6.5306     7.8061    -2.1229 H       
  52 H52            8.9655     8.1599     2.1993 H       
  53 H53            6.5724     7.7880     2.1254 H       
@<TRIPOS>BOND
   1    1    2 am
   2    1    6 1
   3    1   16 2
   4    1   17 2
   5    2    3 am
   6    2   19 1
   7    3    4 am
   8    3   15 2
   9    4    5 1
  10    4   18 1
  11    5    6 ar
  12    5    7 ar
  13    6   10 ar
  14    7    8 ar
  15    7   35 1
  16    8    9 ar
  17    8   36 1
  18    9   10 ar
  19    9   11 1
  20   10   37 1
  21   11   12 2
  22   11   13 am
  23   13   14 1
  24   13   38 1
  25   14   26 1
  26   14   39 1
  27   14   40 1
  28   18   41 1
  29   18   42 1
  30   18   43 1
  31   19   20 1
  32   19   44 1
  33   19   45 1
  34   20   21 ar
  35   20   25 ar
  36   21   22 ar
  37   21   46 1
  38   22   23 ar
  39   22   47 1
  40   23   24 ar
  41   23   48 1
  42   24   25 ar
  43   24   49 1
  44   25   50 1
  45   26   27 ar
  46   26   31 ar
  47   27   28 ar
  48   27   51 1
  49   28   29 ar
  50   28   32 2
  51   29   30 ar
  52   29   34 2
  53   30   31 ar
  54   30   52 1
  55   31   53 1
  56   32   33 1
  57   33   34 1

#	End of record

