#	Name: ASD05313221
#	Creating user name:	WinNT
#	Creation time:	15. 06. 2019 20:58

#	Modifying user name:	WinNT
#	Modification time:	15. 06. 2019 20:58

#	Program:	/corina/corina34_cracker 3.40 0067  02.08.2006

@<TRIPOS>MOLECULE
ASD05313221
  33   35    0    0    0
SMALL
NO_CHARGES


@<TRIPOS>ATOM
   1 C1            -0.0739     0.8182     1.0264 C.2     
   2 C2             0.1129    -0.6198     0.5977 C.3     
   3 N3             0.9269     1.7302     1.0528 N.pl3   
   4 N4             1.4556    -0.7206    -0.0034 N.am    
   5 C5             2.5694    -0.0394     0.6741 C.3     
   6 C6             2.3150     1.4720     0.6643 C.3     
   7 N7            -1.1710     1.3889     1.4268 N.2     
   8 C8            -0.9163     2.6738     1.7239 C.2     
   9 C9             0.3927     2.9041     1.4969 C.2     
  10 C10           -1.9182     3.6814     2.2260 C.3     
  11 C11            1.6565    -1.4168    -1.1398 C.2     
  12 O12            2.7486    -1.4070    -1.6736 O.2     
  13 C13            0.5491    -2.1920    -1.7369 C.ar    
  14 C14            0.3192    -2.1405    -3.1140 C.ar    
  15 C15           -0.7186    -2.8684    -3.6650 C.ar    
  16 C16           -1.5282    -3.6458    -2.8549 C.ar    
  17 C17           -1.3047    -3.6996    -1.4905 C.ar    
  18 C18           -0.2684    -2.9835    -0.9283 C.ar    
  19 Cl19          -1.0076    -2.8072    -5.3757 Cl      
  20 Cl20           1.3337    -1.1647    -4.1301 Cl      
  21 H21            0.0429    -1.2780     1.4637 H       
  22 H22           -0.6448    -0.8898    -0.1379 H       
  23 H23            2.6389    -0.3905     1.7037 H       
  24 H24            3.5009    -0.2555     0.1509 H       
  25 H25            2.4917     1.8644    -0.3372 H       
  26 H26            2.9874     1.9590     1.3707 H       
  27 H27            0.9173     3.8370     1.6413 H       
  28 H28           -1.9425     3.6577     3.3155 H       
  29 H29           -1.6307     4.6778     1.8905 H       
  30 H30           -2.9060     3.4374     1.8351 H       
  31 H31           -2.3381    -4.2126    -3.2897 H       
  32 H32           -1.9406    -4.3080    -0.8644 H       
  33 H33           -0.0931    -3.0309     0.1363 H       
@<TRIPOS>BOND
   1    1    2 1
   2    1    3 1
   3    1    7 2
   4    2    4 1
   5    2   21 1
   6    2   22 1
   7    3    6 1
   8    3    9 1
   9    4    5 1
  10    4   11 am
  11    5    6 1
  12    5   23 1
  13    5   24 1
  14    6   25 1
  15    6   26 1
  16    7    8 1
  17    8    9 2
  18    8   10 1
  19    9   27 1
  20   10   28 1
  21   10   29 1
  22   10   30 1
  23   11   12 2
  24   11   13 1
  25   13   14 ar
  26   13   18 ar
  27   14   15 ar
  28   14   20 1
  29   15   16 ar
  30   15   19 1
  31   16   17 ar
  32   16   31 1
  33   17   18 ar
  34   17   32 1
  35   18   33 1

#	End of record

