#	Name: ASD05430450
#	Creating user name:	WinNT
#	Creation time:	15. 06. 2019 21:00

#	Modifying user name:	WinNT
#	Modification time:	15. 06. 2019 21:00

#	Program:	/corina/corina34_cracker 3.40 0067  02.08.2006

@<TRIPOS>MOLECULE
ASD05430450
  61   65    0    0    0
SMALL
NO_CHARGES


@<TRIPOS>ATOM
   1 C1            -0.3459     1.5272     1.0819 C.ar    
   2 C2            -0.1354     0.3432     0.3755 C.ar    
   3 C3            -1.1445    -0.1833    -0.4210 C.ar    
   4 C4            -2.3581     0.4616    -0.5169 C.ar    
   5 C5            -2.5765     1.6496     0.1887 C.ar    
   6 C6            -1.5626     2.1765     0.9949 C.ar    
   7 C7            -5.0116     1.6262     0.0140 C.2     
   8 C8            -3.8721     2.3401     0.0875 C.2     
   9 O9             0.6439     2.0395     1.8604 O.3     
  10 C10            1.2909    -1.6464     0.7405 C.2     
  11 N11            1.0969    -0.3166     0.4690 N.pl3   
  12 C12            2.6212    -1.8555     0.7356 C.2     
  13 N13            3.2275    -0.6891     0.4691 N.2     
  14 C14            2.3254     0.2403     0.3074 C.2     
  15 C15            3.3097    -3.1723     0.9862 C.3     
  16 C16           -7.3527     0.5604     1.0425 C.2     
  17 N17           -7.4375     1.6964     0.3399 N.am    
  18 C18           -6.0754    -0.1933     1.2881 C.3     
  19 C19           -6.3197     2.2568    -0.2672 C.2     
  20 C20           -5.0366     0.1201     0.2080 C.3     
  21 C21            0.3591     3.2551     2.5555 C.3     
  22 O22           -8.3752     0.1090     1.5129 O.2     
  23 C23           -8.7307     2.3867     0.2162 C.3     
  24 C24           -8.8216     2.9690    -1.2011 C.3     
  25 C25           -7.6499     3.9361    -1.4016 C.3     
  26 N26           -6.3927     3.2807    -1.0542 N.2     
  27 C27           -9.8545     1.4075     0.4381 C.ar    
  28 C28          -10.6802     1.5417     1.5387 C.ar    
  29 C29          -10.0624     0.3792    -0.4621 C.ar    
  30 C30          -11.0932    -0.5189    -0.2601 C.ar    
  31 C31          -11.9176    -0.3886     0.8447 C.ar    
  32 C32          -11.7114     0.6446     1.7430 C.ar    
  33 F33          -12.9257    -1.2659     1.0432 F       
  34 C34           -8.8154     3.5153     1.2458 C.3     
  35 H35           -0.9771    -1.1002    -0.9666 H       
  36 H36           -3.1407     0.0503    -1.1372 H       
  37 H37           -1.7271     3.0933     1.5417 H       
  38 H38           -3.9091     3.4193     0.0722 H       
  39 H39            0.5241    -2.3838     0.9270 H       
  40 H40            2.5226     1.2780     0.0823 H       
  41 H41            3.4389    -3.7004     0.0415 H       
  42 H42            4.2851    -2.9921     1.4381 H       
  43 H43            2.7030    -3.7770     1.6604 H       
  44 H44           -5.6728     0.0925     2.2599 H       
  45 H45           -6.2858    -1.2628     1.2897 H       
  46 H46           -5.3158    -0.3681    -0.7257 H       
  47 H47           -4.0544    -0.2275     0.5282 H       
  48 H48            1.2308     3.5533     3.1380 H       
  49 H49            0.1181     4.0373     1.8358 H       
  50 H50           -0.4888     3.1017     3.2231 H       
  51 H51           -8.7620     2.1638    -1.9333 H       
  52 H52           -9.7642     3.5037    -1.3185 H       
  53 H53           -7.6188     4.2555    -2.4433 H       
  54 H54           -7.7870     4.8078    -0.7617 H       
  55 H55          -10.5192     2.3477     2.2393 H       
  56 H56           -9.4192     0.2778    -1.3237 H       
  57 H57          -11.2559    -1.3217    -0.9639 H       
  58 H58          -12.3536     0.7470     2.6053 H       
  59 H59           -8.0085     4.2272     1.0718 H       
  60 H60           -9.7750     4.0233     1.1499 H       
  61 H61           -8.7231     3.0995     2.2491 H       
@<TRIPOS>BOND
   1    1    2 ar
   2    1    9 1
   3    1    6 ar
   4    2    3 ar
   5    2   11 1
   6    3    4 ar
   7    3   35 1
   8    4    5 ar
   9    4   36 1
  10    5    6 ar
  11    5    8 1
  12    6   37 1
  13    7    8 2
  14    7   19 1
  15    7   20 1
  16    8   38 1
  17    9   21 1
  18   10   11 1
  19   10   12 2
  20   10   39 1
  21   11   14 1
  22   12   13 1
  23   12   15 1
  24   13   14 2
  25   14   40 1
  26   15   41 1
  27   15   42 1
  28   15   43 1
  29   16   17 am
  30   16   18 1
  31   16   22 2
  32   17   23 1
  33   17   19 1
  34   18   20 1
  35   18   44 1
  36   18   45 1
  37   19   26 2
  38   20   46 1
  39   20   47 1
  40   21   48 1
  41   21   49 1
  42   21   50 1
  43   23   24 1
  44   23   27 1
  45   23   34 1
  46   24   25 1
  47   24   51 1
  48   24   52 1
  49   25   26 1
  50   25   53 1
  51   25   54 1
  52   27   28 ar
  53   27   29 ar
  54   28   32 ar
  55   28   55 1
  56   29   30 ar
  57   29   56 1
  58   30   31 ar
  59   30   57 1
  60   31   32 ar
  61   31   33 1
  62   32   58 1
  63   34   59 1
  64   34   60 1
  65   34   61 1

#	End of record

