#	Name: ASD03331626
#	Creating user name:	WinNT
#	Creation time:	15. 06. 2019 20:39

#	Modifying user name:	WinNT
#	Modification time:	15. 06. 2019 20:39

#	Program:	/corina/corina34_cracker 3.40 0067  02.08.2006

@<TRIPOS>MOLECULE
ASD03331626
  59   63    0    0    0
SMALL
NO_CHARGES


@<TRIPOS>ATOM
   1 C1             0.5155     1.8330     1.3500 C.ar    
   2 C2             0.8206     0.6239     1.9084 C.ar    
   3 C3             2.0153    -0.0128     1.6021 C.ar    
   4 C4             2.9153     0.5617     0.7307 C.ar    
   5 C5             2.6265     1.7920     0.1500 C.ar    
   6 C6             1.4130     2.4341     0.4633 C.ar    
   7 N7             3.3044     2.6009    -0.7351 N.pl3   
   8 C8             2.5644     3.7317    -0.9936 C.2     
   9 C9             1.4044     3.6854    -0.2928 C.2     
  10 C10            2.9720     4.8297    -1.8966 C.ar    
  11 C11            0.3142     4.7258    -0.2930 C.3     
  12 C12           -0.3866     4.7187    -1.6271 C.ar    
  13 C13           -0.6933     4.4089     0.8140 C.3     
  14 C14           -0.3312     5.8351    -2.4413 C.ar    
  15 C15           -0.9723     5.8320    -3.6645 C.ar    
  16 C16           -1.6734     4.7058    -4.0767 C.ar    
  17 C17           -1.7271     3.5862    -3.2563 C.ar    
  18 C18           -1.0790     3.5939    -2.0367 C.ar    
  19 C19            3.4503     4.5438    -3.1760 C.ar    
  20 C20            3.8289     5.5727    -4.0134 C.ar    
  21 C21            3.7356     6.8856    -3.5871 C.ar    
  22 C22            3.2627     7.1758    -2.3197 C.ar    
  23 C23            2.8745     6.1564    -1.4749 C.ar    
  24 N24           -0.0430     4.5450     2.1197 N.pl3   
  25 O25            0.6993     5.4863     2.3352 O.2     
  26 O26           -0.2448     3.7169     2.9898 O.2     
  27 N27           -2.3233     4.6995    -5.3130 N.3     
  28 C28           -2.9984     3.4164    -5.5461 C.3     
  29 C29           -3.8169     3.4962    -6.8367 C.3     
  30 C30           -2.8853     3.8240    -8.0067 C.3     
  31 C31           -2.1585     5.1402    -7.7169 C.3     
  32 C32           -1.3880     5.0128    -6.4008 C.3     
  33 H33           -0.4180     2.3204     1.5896 H       
  34 H34            0.1268     0.1600     2.5938 H       
  35 H35            2.2422    -0.9683     2.0515 H       
  36 H36            3.8424     0.0581     0.4997 H       
  37 H37            4.1731     2.4031    -1.1187 H       
  38 H38            0.7503     5.7091    -0.1168 H       
  39 H39           -1.5318     5.1026     0.7516 H       
  40 H40           -1.0564     3.3883     0.6936 H       
  41 H41            0.2138     6.7104    -2.1202 H       
  42 H42           -0.9289     6.7043    -4.2998 H       
  43 H43           -2.2713     2.7090    -3.5737 H       
  44 H44           -1.1163     2.7221    -1.4005 H       
  45 H45            3.5243     3.5193    -3.5097 H       
  46 H46            4.1993     5.3528    -5.0038 H       
  47 H47            4.0336     7.6875    -4.2464 H       
  48 H48            3.1929     8.2027    -1.9926 H       
  49 H49            2.5009     6.3844    -0.4876 H       
  50 H50           -2.2538     2.6255    -5.6365 H       
  51 H51           -3.6609     3.1972    -4.7087 H       
  52 H52           -4.3053     2.5386    -7.0176 H       
  53 H53           -4.5708     4.2777    -6.7417 H       
  54 H54           -2.1552     3.0235    -8.1264 H       
  55 H55           -3.4702     3.9245    -8.9210 H       
  56 H56           -1.4620     5.3573    -8.5268 H       
  57 H57           -2.8863     5.9476    -7.6359 H       
  58 H58           -0.8809     5.9530    -6.1843 H       
  59 H59           -0.6510     4.2144    -6.4873 H       
@<TRIPOS>BOND
   1    1    2 ar
   2    1    6 ar
   3    1   33 1
   4    2    3 ar
   5    2   34 1
   6    3    4 ar
   7    3   35 1
   8    4    5 ar
   9    4   36 1
  10    5    7 1
  11    5    6 ar
  12    6    9 1
  13    7    8 1
  14    7   37 1
  15    8    9 2
  16    8   10 1
  17    9   11 1
  18   10   19 ar
  19   10   23 ar
  20   11   13 1
  21   11   12 1
  22   11   38 1
  23   12   14 ar
  24   12   18 ar
  25   13   24 1
  26   13   39 1
  27   13   40 1
  28   14   15 ar
  29   14   41 1
  30   15   16 ar
  31   15   42 1
  32   16   17 ar
  33   16   27 1
  34   17   18 ar
  35   17   43 1
  36   18   44 1
  37   19   20 ar
  38   19   45 1
  39   20   21 ar
  40   20   46 1
  41   21   22 ar
  42   21   47 1
  43   22   23 ar
  44   22   48 1
  45   23   49 1
  46   24   25 2
  47   24   26 2
  48   27   28 1
  49   27   32 1
  50   28   29 1
  51   28   50 1
  52   28   51 1
  53   29   30 1
  54   29   52 1
  55   29   53 1
  56   30   31 1
  57   30   54 1
  58   30   55 1
  59   31   32 1
  60   31   56 1
  61   31   57 1
  62   32   58 1
  63   32   59 1

#	End of record

