#	Name: ASD01883360
#	Creating user name:	WinNT
#	Creation time:	15. 06. 2019 19:46

#	Modifying user name:	WinNT
#	Modification time:	15. 06. 2019 19:46

#	Program:	/corina/corina34_cracker 3.40 0067  02.08.2006

@<TRIPOS>MOLECULE
ASD01883360
  56   58    0    0    0
SMALL
NO_CHARGES


@<TRIPOS>ATOM
   1 N1             0.0021     1.3082    -0.0152 N.am    
   2 C2            -0.7518     1.3829     1.0973 C.2     
   3 C3            -1.9997     0.7182     1.1499 C.2     
   4 C4            -2.4239    -0.0108     0.0261 C.2     
   5 C5            -1.5912    -0.0513    -1.1076 C.2     
   6 C6            -0.4117     0.6073    -1.1028 C.2     
   7 O7            -0.3596     2.0222     2.0588 O.2     
   8 C8            -2.8143     0.7866     2.3257 C.1     
   9 N9            -3.4606     0.8409     3.2584 N.1     
  10 C10            1.2919     2.0017    -0.0562 C.3     
  11 C11            2.3909     1.0649     0.4490 C.3     
  12 C12            3.7528     1.7437     0.2897 C.3     
  13 N13           -3.6309    -0.6732     0.0341 N.pl3   
  14 C14           -4.8964     0.0654     0.1606 C.3     
  15 C15           -5.8354    -0.3813    -0.9650 C.3     
  16 N16           -5.9647    -1.8444    -0.9388 N.3     
  17 C17           -4.6754    -2.4981    -1.1997 C.3     
  18 C18           -3.6892    -2.1376    -0.0898 C.3     
  19 C19           -6.9877    -2.2996    -1.8897 C.3     
  20 C20            2.1499     0.7456     1.9258 C.3     
  21 C21           -6.9236    -3.7998    -2.0165 C.ar    
  22 C22           -7.6799    -4.5961    -1.1769 C.ar    
  23 C23           -7.6230    -5.9722    -1.2904 C.ar    
  24 C24           -6.8065    -6.5548    -2.2479 C.ar    
  25 C25           -6.0479    -5.7532    -3.0906 C.ar    
  26 C26           -6.1126    -4.3774    -2.9762 C.ar    
  27 O27           -6.7485    -7.9081    -2.3611 O.3     
  28 Cl28          -5.0239    -6.4783    -4.2904 Cl      
  29 C29           -7.5556    -8.6696    -1.4607 C.3     
  30 F30           -8.9015    -8.3344    -1.6435 F       
  31 F31           -7.3763   -10.0338    -1.7135 F       
  32 F32           -7.1792    -8.3860    -0.1434 F       
  33 H33           -1.8967    -0.6057    -1.9826 H       
  34 H34            0.2190     0.5690    -1.9787 H       
  35 H35            1.5116     2.3000    -1.0814 H       
  36 H36            1.2488     2.8869     0.5784 H       
  37 H37            2.3755     0.1413    -0.1297 H       
  38 H38            3.7683     2.6673     0.8684 H       
  39 H39            4.5358     1.0763     0.6497 H       
  40 H40            3.9245     1.9712    -0.7624 H       
  41 H41           -5.3527    -0.1526     1.1262 H       
  42 H42           -4.7061     1.1353     0.0757 H       
  43 H43           -6.8159     0.0731    -0.8226 H       
  44 H44           -5.4256    -0.0696    -1.9257 H       
  45 H45           -4.8145    -3.5788    -1.2275 H       
  46 H46           -4.2817    -2.1568    -2.1571 H       
  47 H47           -2.7011    -2.5253    -0.3378 H       
  48 H48           -4.0273    -2.5657     0.8538 H       
  49 H49           -7.9742    -2.0072    -1.5297 H       
  50 H50           -6.8067    -1.8446    -2.8635 H       
  51 H51            2.1653     1.6692     2.5044 H       
  52 H52            1.1796     0.2619     2.0392 H       
  53 H53            2.9329     0.0782     2.2857 H       
  54 H54           -8.3158    -4.1423    -0.4312 H       
  55 H55           -8.2137    -6.5935    -0.6336 H       
  56 H56           -5.5232    -3.7530    -3.6314 H       
@<TRIPOS>BOND
   1    1    2 am
   2    1   10 1
   3    1    6 1
   4    2    3 1
   5    2    7 2
   6    3    4 2
   7    3    8 1
   8    4    5 1
   9    4   13 1
  10    5    6 2
  11    5   33 1
  12    6   34 1
  13    8    9 3
  14   10   11 1
  15   10   35 1
  16   10   36 1
  17   11   12 1
  18   11   20 1
  19   11   37 1
  20   12   38 1
  21   12   39 1
  22   12   40 1
  23   13   14 1
  24   13   18 1
  25   14   15 1
  26   14   41 1
  27   14   42 1
  28   15   16 1
  29   15   43 1
  30   15   44 1
  31   16   17 1
  32   16   19 1
  33   17   18 1
  34   17   45 1
  35   17   46 1
  36   18   47 1
  37   18   48 1
  38   19   21 1
  39   19   49 1
  40   19   50 1
  41   20   51 1
  42   20   52 1
  43   20   53 1
  44   21   22 ar
  45   21   26 ar
  46   22   23 ar
  47   22   54 1
  48   23   24 ar
  49   23   55 1
  50   24   25 ar
  51   24   27 1
  52   25   26 ar
  53   25   28 1
  54   26   56 1
  55   27   29 1
  56   29   30 1
  57   29   31 1
  58   29   32 1

#	End of record

