#	Name: ASD01028794
#	Creating user name:	WinNT
#	Creation time:	15. 06. 2019 18:58

#	Modifying user name:	WinNT
#	Modification time:	15. 06. 2019 18:58

#	Program:	/corina/corina34_cracker 3.40 0067  02.08.2006

@<TRIPOS>MOLECULE
ASD01028794
  55   56    0    0    0
SMALL
NO_CHARGES


@<TRIPOS>ATOM
   1 C1            -0.0162     1.3436     0.0094 C.2     
   2 N2             0.0021    -0.0041     0.0020 N.am    
   3 O3             1.0277     1.9654     0.0028 O.2     
   4 O4            -1.1912     2.0008     0.0186 O.3     
   5 C5             1.2806    -0.7192    -0.0140 C.3     
   6 C6             1.0214    -2.2271    -0.0197 C.3     
   7 C7             2.3366    -2.9628    -0.0362 C.ar    
   8 C8             2.9495    -3.3057     1.1560 C.ar    
   9 C9             4.1537    -3.9792     1.1468 C.ar    
  10 C10            4.7524    -4.3146    -0.0665 C.ar    
  11 C11            4.1302    -3.9671    -1.2644 C.ar    
  12 C12            2.9238    -3.2978    -1.2434 C.ar    
  13 O13            6.8749    -5.5017    -1.2306 O.3     
  14 B14            6.1228    -5.0806    -0.0837 Du      
  15 O15            6.8975    -5.5123     1.0440 O.3     
  16 C16            8.2667    -5.2583     0.6654 C.3     
  17 C17            8.2514    -5.2511    -0.8768 C.3     
  18 C18            9.1527    -6.3597    -1.4241 C.3     
  19 C19            8.6986    -3.8878    -1.4080 C.3     
  20 C20            8.7246    -3.9000     1.2003 C.3     
  21 C21            9.1787    -6.3719     1.1842 C.3     
  22 C22           -1.1349     3.4517     0.0262 C.3     
  23 C23           -0.4003     3.9401    -1.2239 C.3     
  24 C24           -2.5565     4.0172     0.0360 C.3     
  25 C25           -0.3885     3.9266     1.2745 C.3     
  26 H26           -0.8313    -0.5005     0.0073 H       
  27 H27            1.8400    -0.4434    -0.9079 H       
  28 H28            1.8570    -0.4529     0.8719 H       
  29 H29            0.4620    -2.5030     0.8742 H       
  30 H30            0.4450    -2.4934    -0.9056 H       
  31 H31            2.4848    -3.0453     2.0955 H       
  32 H32            4.6316    -4.2458     2.0779 H       
  33 H33            4.5899    -4.2242    -2.2073 H       
  34 H34            2.4390    -3.0314    -2.1710 H       
  35 H35            9.0858    -6.3785    -2.5119 H       
  36 H36           10.1840    -6.1695    -1.1267 H       
  37 H37            8.8305    -7.3209    -1.0236 H       
  38 H38            8.0568    -3.1090    -0.9962 H       
  39 H39            9.7309    -3.7028    -1.1107 H       
  40 H40            8.6269    -3.8803    -2.4956 H       
  41 H41            8.6745    -3.9027     2.2892 H       
  42 H42            9.7507    -3.7122     0.8843 H       
  43 H43            8.0747    -3.1174     0.8086 H       
  44 H44            8.8485    -7.3293     0.7812 H       
  45 H45           10.2038    -6.1788     0.8682 H       
  46 H46            9.1334    -6.4009     2.2729 H       
  47 H47           -0.9321     3.6018    -2.1132 H       
  48 H48           -0.3581     5.0293    -1.2182 H       
  49 H49            0.6125     3.5373    -1.2309 H       
  50 H50           -3.0798     3.6692     0.9266 H       
  51 H51           -2.5142     5.1064     0.0417 H       
  52 H52           -3.0883     3.6789    -0.8533 H       
  53 H53            0.6243     3.5237     1.2675 H       
  54 H54           -0.3462     5.0157     1.2802 H       
  55 H55           -0.9118     3.5786     2.1651 H       
@<TRIPOS>BOND
   1    1    2 am
   2    1    3 2
   3    1    4 1
   4    2    5 1
   5    2   26 1
   6    4   22 1
   7    5    6 1
   8    5   27 1
   9    5   28 1
  10    6    7 1
  11    6   29 1
  12    6   30 1
  13    7    8 ar
  14    7   12 ar
  15    8    9 ar
  16    8   31 1
  17    9   10 ar
  18    9   32 1
  19   10   11 ar
  20   10   14 1
  21   11   12 ar
  22   11   33 1
  23   12   34 1
  24   13   14 1
  25   13   17 1
  26   14   15 1
  27   15   16 1
  28   16   17 1
  29   16   20 1
  30   16   21 1
  31   17   18 1
  32   17   19 1
  33   18   35 1
  34   18   36 1
  35   18   37 1
  36   19   38 1
  37   19   39 1
  38   19   40 1
  39   20   41 1
  40   20   42 1
  41   20   43 1
  42   21   44 1
  43   21   45 1
  44   21   46 1
  45   22   23 1
  46   22   25 1
  47   22   24 1
  48   23   47 1
  49   23   48 1
  50   23   49 1
  51   24   50 1
  52   24   51 1
  53   24   52 1
  54   25   53 1
  55   25   54 1
  56   25   55 1

#	End of record

