#	Name: ASD02038023
#	Creating user name:	WinNT
#	Creation time:	15. 06. 2019 20:16

#	Modifying user name:	WinNT
#	Modification time:	15. 06. 2019 20:16

#	Program:	/corina/corina34_cracker 3.40 0067  02.08.2006

@<TRIPOS>MOLECULE
ASD02038023
  43   46    0    0    0
SMALL
NO_CHARGES


@<TRIPOS>ATOM
   1 N1            -2.3410     1.5743     0.1237 N.am    
   2 N2            -1.0034     3.4771    -0.0758 N.am    
   3 C3            -1.1211     2.1378     0.0192 C.2     
   4 C4            -0.7053     6.8827    -0.1175 C.3     
   5 O5             0.2566     7.6345     0.6252 O.3     
   6 C6             0.4902     8.9107     0.2184 C.ar    
   7 C7             1.4121     9.6965     0.8952 C.ar    
   8 C8            -0.1889     9.4246    -0.8763 C.ar    
   9 C9             0.0478    10.7208    -1.2905 C.ar    
  10 C10            0.9656    11.5093    -0.6104 C.ar    
  11 C11            1.6492    10.9921     0.4824 C.ar    
  12 N12            1.2080    12.8240    -1.0269 N.am    
  13 C13            2.3242    13.4673    -0.6384 C.2     
  14 C14            3.3424    12.7840     0.2340 C.3     
  15 C15            2.6443    11.8507     1.2190 C.3     
  16 O16           -0.1276     1.4385     0.0107 O.2     
  17 O17            2.5122    14.6110    -0.9959 O.2     
  18 C18           -1.9275     4.6182    -0.1573 C.3     
  19 C19           -0.8321     5.4815     0.4839 C.3     
  20 C20            0.1058     4.4409    -0.1371 C.3     
  21 C21           -2.6016     0.2297     0.1491 C.2     
  22 C22           -3.5281     2.2501     0.2284 C.2     
  23 C23           -4.5200     1.3443     0.3182 C.2     
  24 C24           -3.9321     0.0622     0.2679 C.2     
  25 H25           -1.6715     7.3854    -0.0741 H       
  26 H26           -0.3826     6.8047    -1.1556 H       
  27 H27            1.9438     9.2945     1.7450 H       
  28 H28           -0.9029     8.8108    -1.4054 H       
  29 H29           -0.4808    11.1205    -2.1433 H       
  30 H30            0.5672    13.2739    -1.5995 H       
  31 H31            4.0224    12.2037    -0.3896 H       
  32 H32            3.9097    13.5346     0.7844 H       
  33 H33            2.1234    12.4416     1.9724 H       
  34 H34            3.3850    11.2153     1.7046 H       
  35 H35           -2.1676     4.9103    -1.1796 H       
  36 H36           -2.8129     4.5053     0.4684 H       
  37 H37           -0.8424     5.4797     1.5738 H       
  38 H38            0.9472     4.1776     0.5038 H       
  39 H39            0.4104     4.6837    -1.1551 H       
  40 H40           -1.8669    -0.5594     0.0845 H       
  41 H41           -3.6474     3.3234     0.2377 H       
  42 H42           -5.5742     1.5597     0.4121 H       
  43 H43           -4.4546    -0.8818     0.3156 H       
@<TRIPOS>BOND
   1    1   21 1
   2    1   22 1
   3    1    3 am
   4    2    3 am
   5    2   18 1
   6    2   20 1
   7    3   16 2
   8    4    5 1
   9    4   19 1
  10    4   25 1
  11    4   26 1
  12    5    6 1
  13    6    7 ar
  14    6    8 ar
  15    7   11 ar
  16    7   27 1
  17    8    9 ar
  18    8   28 1
  19    9   10 ar
  20    9   29 1
  21   10   11 ar
  22   10   12 1
  23   11   15 1
  24   12   13 am
  25   12   30 1
  26   13   14 1
  27   13   17 2
  28   14   15 1
  29   14   31 1
  30   14   32 1
  31   15   33 1
  32   15   34 1
  33   18   19 1
  34   18   35 1
  35   18   36 1
  36   19   20 1
  37   19   37 1
  38   20   38 1
  39   20   39 1
  40   21   24 2
  41   21   40 1
  42   22   23 2
  43   22   41 1
  44   23   24 1
  45   23   42 1
  46   24   43 1

#	End of record

