#	Name: ASD01915876
#	Creating user name:	WinNT
#	Creation time:	15. 06. 2019 20:06

#	Modifying user name:	WinNT
#	Modification time:	15. 06. 2019 20:06

#	Program:	/corina/corina34_cracker 3.40 0067  02.08.2006

@<TRIPOS>MOLECULE
ASD01915876
  41   44    0    0    0
SMALL
NO_CHARGES


@<TRIPOS>ATOM
   1 C1            -0.0043     1.4631     0.2176 C.2     
   2 N2             0.0615     0.1099    -0.0288 N.pl3   
   3 C3            -1.1510    -0.6743    -0.2922 C.3     
   4 C4            -2.3298    -0.0462     0.4495 C.3     
   5 N5            -2.4043     1.3988     0.2637 N.am    
   6 C6            -1.2917     2.1721     0.2677 C.2     
   7 C7             1.2784     1.9003     0.3937 C.2     
   8 C8             2.0745     0.7558     0.2522 C.2     
   9 N9             1.2813    -0.2615     0.0091 N.2     
  10 C10            3.5768     0.7024     0.3593 C.3     
  11 O11            4.0818     2.0113     0.6310 O.3     
  12 C12            5.4297     2.1388     0.7584 C.ar    
  13 O13           -1.3543     3.3861     0.3108 O.2     
  14 C14            6.2480     1.0286     0.6247 C.ar    
  15 C15            5.9908     3.3856     1.0176 C.ar    
  16 C16            7.3647     3.5104     1.1465 C.ar    
  17 C17            8.1749     2.3977     1.0176 C.ar    
  18 C18            7.6180     1.1600     0.7544 C.ar    
  19 C19           -3.6492     1.9979     0.0773 C.ar    
  20 C20           -4.8076     1.2633     0.3045 C.ar    
  21 N21           -3.7166     3.2618    -0.3090 N.ar    
  22 C22           -4.8736     3.8677    -0.4973 C.ar    
  23 C23           -6.0657     3.1967    -0.2951 C.ar    
  24 C24           -6.0370     1.8690     0.1161 C.ar    
  25 O25            5.1923     4.4793     1.1436 O.3     
  26 F26           -7.2452     3.8261    -0.4897 F       
  27 H27           -1.3557    -0.6791    -1.3628 H       
  28 H28           -1.0056    -1.6970     0.0555 H       
  29 H29           -3.2540    -0.4961     0.0869 H       
  30 H30           -2.2304    -0.2598     1.5137 H       
  31 H31            1.6071     2.9087     0.5976 H       
  32 H32            3.8596     0.0287     1.1681 H       
  33 H33            3.9953     0.3391    -0.5793 H       
  34 H34            5.8154     0.0605     0.4194 H       
  35 H35            7.8027     4.4769     1.3473 H       
  36 H36            9.2457     2.4964     1.1180 H       
  37 H37            8.2542     0.2930     0.6548 H       
  38 H38           -4.7484     0.2332     0.6237 H       
  39 H39           -4.8897     4.9004    -0.8128 H       
  40 H40           -6.9535     1.3220     0.2812 H       
  41 H41            4.8933     4.6458     2.0480 H       
@<TRIPOS>BOND
   1    1    2 1
   2    1    7 2
   3    1    6 1
   4    2    3 1
   5    2    9 1
   6    3    4 1
   7    3   27 1
   8    3   28 1
   9    4    5 1
  10    4   29 1
  11    4   30 1
  12    5    6 am
  13    5   19 1
  14    6   13 2
  15    7    8 1
  16    7   31 1
  17    8    9 2
  18    8   10 1
  19   10   11 1
  20   10   32 1
  21   10   33 1
  22   11   12 1
  23   12   14 ar
  24   12   15 ar
  25   14   18 ar
  26   14   34 1
  27   15   16 ar
  28   15   25 1
  29   16   17 ar
  30   16   35 1
  31   17   18 ar
  32   17   36 1
  33   18   37 1
  34   19   20 ar
  35   19   21 ar
  36   20   24 ar
  37   20   38 1
  38   21   22 ar
  39   22   23 ar
  40   22   39 1
  41   23   24 ar
  42   23   26 1
  43   24   40 1
  44   25   41 1

#	End of record

