#	Name: ASD01914109
#	Creating user name:	WinNT
#	Creation time:	15. 06. 2019 20:02

#	Modifying user name:	WinNT
#	Modification time:	15. 06. 2019 20:02

#	Program:	/corina/corina34_cracker 3.40 0067  02.08.2006

@<TRIPOS>MOLECULE
ASD01914109
  49   50    0    0    0
SMALL
NO_CHARGES


@<TRIPOS>ATOM
   1 C1            -0.0167     1.3783     0.0096 C.ar    
   2 C2             0.0021    -0.0041     0.0020 C.ar    
   3 C3             2.3846     0.0977    -0.0203 C.ar    
   4 C4             2.2847     1.4811    -0.0118 C.ar    
   5 O5             3.6025    -0.5054    -0.0347 O.3     
   6 C6             1.2201    -0.6638    -0.0132 C.ar    
   7 N7             1.1055     2.0705     0.0026 N.ar    
   8 C8            -1.2874    -0.7840     0.0107 C.3     
   9 C9             4.7489     0.3478    -0.0406 C.3     
  10 C10            6.0000    -0.4921    -0.0567 C.ar    
  11 N11            7.1789     0.1000    -0.0643 N.ar    
  12 C12            8.3023    -0.5872    -0.0784 C.ar    
  13 C13            8.2807    -1.9822    -0.0862 C.ar    
  14 C14            7.0443    -2.6395    -0.0784 C.ar    
  15 C15            5.8936    -1.8716    -0.0575 C.ar    
  16 C16            9.5419    -2.7534    -0.1030 C.2     
  17 N17           10.7257    -2.1091    -0.1108 N.am    
  18 C18           11.9754    -2.8734    -0.1274 C.3     
  19 O19            9.5112    -3.9685    -0.1097 O.2     
  20 C20           13.0866    -2.0205    -0.7430 C.3     
  21 C21           12.3589    -3.2549     1.3038 C.3     
  22 C22           12.7031    -1.6389    -2.1741 C.3     
  23 C23           13.2760    -0.7512     0.0899 C.3     
  24 C24           14.3918    -2.8187    -0.7603 C.3     
  25 F25           -2.3689     0.1032     0.0262 F       
  26 F26           -1.3565    -1.5835    -1.1353 F       
  27 F27           -1.3337    -1.5958     1.1491 F       
  28 H28           -0.9633     1.8983     0.0169 H       
  29 H29            3.1823     2.0818    -0.0168 H       
  30 H30            1.2648    -1.7429    -0.0191 H       
  31 H31            4.7254     0.9817    -0.9270 H       
  32 H32            4.7418     0.9720     0.8528 H       
  33 H33            9.2484    -0.0663    -0.0842 H       
  34 H34            6.9904    -3.7181    -0.0842 H       
  35 H35            4.9224    -2.3439    -0.0510 H       
  36 H36           10.7501    -1.1395    -0.1054 H       
  37 H37           11.8405    -3.7777    -0.7208 H       
  38 H38           12.4939    -2.3506     1.8972 H       
  39 H39           11.5673    -3.8625     1.7423 H       
  40 H40           13.2888    -3.8235     1.2914 H       
  41 H41           11.7732    -1.0703    -2.1618 H       
  42 H42           13.4947    -1.0314    -2.6127 H       
  43 H43           12.5681    -2.5432    -2.7675 H       
  44 H44           13.5492    -1.0230     1.1095 H       
  45 H45           14.0676    -0.1436    -0.3486 H       
  46 H46           12.3461    -0.1826     0.1023 H       
  47 H47           14.2568    -3.7230    -1.3537 H       
  48 H48           15.1834    -2.2111    -1.1989 H       
  49 H49           14.6650    -3.0905     0.2593 H       
@<TRIPOS>BOND
   1    1    2 ar
   2    1    7 ar
   3    1   28 1
   4    2    6 ar
   5    2    8 1
   6    3    4 ar
   7    3    5 1
   8    3    6 ar
   9    4    7 ar
  10    4   29 1
  11    5    9 1
  12    6   30 1
  13    8   25 1
  14    8   26 1
  15    8   27 1
  16    9   10 1
  17    9   31 1
  18    9   32 1
  19   10   11 ar
  20   10   15 ar
  21   11   12 ar
  22   12   13 ar
  23   12   33 1
  24   13   14 ar
  25   13   16 1
  26   14   15 ar
  27   14   34 1
  28   15   35 1
  29   16   17 am
  30   16   19 2
  31   17   18 1
  32   17   36 1
  33   18   20 1
  34   18   21 1
  35   18   37 1
  36   20   23 1
  37   20   24 1
  38   20   22 1
  39   21   38 1
  40   21   39 1
  41   21   40 1
  42   22   41 1
  43   22   42 1
  44   22   43 1
  45   23   44 1
  46   23   45 1
  47   23   46 1
  48   24   47 1
  49   24   48 1
  50   24   49 1

#	End of record

