#	Name: ASD03330769
#	Creating user name:	WinNT
#	Creation time:	15. 06. 2019 20:37

#	Modifying user name:	WinNT
#	Modification time:	15. 06. 2019 20:37

#	Program:	/corina/corina34_cracker 3.40 0067  02.08.2006

@<TRIPOS>MOLECULE
ASD03330769
  66   68    0    0    0
SMALL
NO_CHARGES


@<TRIPOS>ATOM
   1 C1            -0.4105     2.3149     0.9774 C.2     
   2 N2            -0.8185     1.1154     1.4704 N.pl3   
   3 C3             0.9485     2.2736     0.8977 C.2     
   4 N4             1.3494     1.0552     1.3222 N.2     
   5 C5             0.2952     0.3514     1.6625 C.2     
   6 C6             0.3119    -1.0380     2.1694 C.ar    
   7 C7             1.8247     3.3628     0.4318 C.2     
   8 O8             1.3424     4.4200     0.0729 O.2     
   9 C9             4.0320     4.2704    -0.0597 C.3     
  10 N10            3.1608     3.1875     0.4034 N.am    
  11 C11            5.3429     3.6813    -0.5844 C.3     
  12 C12            4.3241     5.2050     1.0858 C.2     
  13 O13            3.9767     4.9128     2.2105 O.2     
  14 C14           -2.2071     0.7397     1.7502 C.3     
  15 C15           -3.0827     1.1251     0.5538 C.3     
  16 C16           -3.5609     2.5653     0.7073 C.3     
  17 N17           -2.5490     3.3885     1.3723 N.3     
  18 C18           -1.3111     3.4561     0.5815 C.3     
  19 C19           -0.4578    -1.3882     3.2792 C.ar    
  20 C20            1.0939    -2.0068     1.5356 C.ar    
  21 C21            1.1041    -3.3037     2.0148 C.ar    
  22 C22            0.3426    -3.6419     3.1179 C.ar    
  23 C23           -0.4383    -2.6867     3.7474 C.ar    
  24 C24           -3.0673     4.7337     1.6549 C.3     
  25 N25            4.9714     6.3654     0.8606 N.am    
  26 C26            5.3261     7.2364     1.9839 C.3     
  27 C27            5.0682     2.8799    -1.8584 C.3     
  28 C28            4.2042     1.6636    -1.5194 C.3     
  29 C29            4.3319     3.7632    -2.8677 C.3     
  30 C30            6.3937     2.4116    -2.4622 C.3     
  31 C31            5.3204     6.7559    -0.5077 C.3     
  32 Cl32          -1.3904    -3.1222     5.1322 Cl      
  33 F33            1.8377    -1.6774     0.4570 F       
  34 H34            3.5349     4.8199    -0.8592 H       
  35 H35            3.5455     2.3443     0.6897 H       
  36 H36            6.0409     4.4886    -0.8063 H       
  37 H37            5.7746     3.0253     0.1715 H       
  38 H38           -2.2675    -0.3362     1.9143 H       
  39 H39           -2.5544     1.2650     2.6400 H       
  40 H40           -2.5031     1.0316    -0.3646 H       
  41 H41           -3.9449     0.4600     0.5064 H       
  42 H42           -3.7680     2.9805    -0.2790 H       
  43 H43           -4.4765     2.5770     1.2986 H       
  44 H44           -0.8064     4.4027     0.7748 H       
  45 H45           -1.5514     3.3798    -0.4789 H       
  46 H46           -1.0673    -0.6447     3.7713 H       
  47 H47            1.7080    -4.0540     1.5262 H       
  48 H48            0.3537    -4.6563     3.4883 H       
  49 H49           -3.9388     4.6581     2.3051 H       
  50 H50           -2.2955     5.3241     2.1488 H       
  51 H51           -3.3521     5.2171     0.7203 H       
  52 H52            6.3154     6.9674     2.3540 H       
  53 H53            5.3325     8.2743     1.6510 H       
  54 H54            4.5941     7.1156     2.7825 H       
  55 H55            3.1925     1.9917    -1.2805 H       
  56 H56            4.1748     0.9890    -2.3751 H       
  57 H57            4.6296     1.1435    -0.6612 H       
  58 H58            4.9474     4.6297    -3.1091 H       
  59 H59            4.1361     3.1923    -3.7753 H       
  60 H60            3.3875     4.0968    -2.4375 H       
  61 H61            6.9183     1.7824    -1.7431 H       
  62 H62            6.1980     1.8407    -3.3698 H       
  63 H63            7.0092     3.2782    -2.7036 H       
  64 H64            4.5094     7.3455    -0.9353 H       
  65 H65            6.2338     7.3505    -0.4940 H       
  66 H66            5.4775     5.8622    -1.1116 H       
@<TRIPOS>BOND
   1    1    2 1
   2    1    3 2
   3    1   18 1
   4    2   14 1
   5    2    5 1
   6    3    4 1
   7    3    7 1
   8    4    5 2
   9    5    6 1
  10    6   20 ar
  11    6   19 ar
  12    7    8 2
  13    7   10 am
  14    9   10 1
  15    9   11 1
  16    9   12 1
  17    9   34 1
  18   10   35 1
  19   11   27 1
  20   11   36 1
  21   11   37 1
  22   12   13 2
  23   12   25 am
  24   14   15 1
  25   14   38 1
  26   14   39 1
  27   15   16 1
  28   15   40 1
  29   15   41 1
  30   16   17 1
  31   16   42 1
  32   16   43 1
  33   17   18 1
  34   17   24 1
  35   18   44 1
  36   18   45 1
  37   19   23 ar
  38   19   46 1
  39   20   21 ar
  40   20   33 1
  41   21   22 ar
  42   21   47 1
  43   22   23 ar
  44   22   48 1
  45   23   32 1
  46   24   49 1
  47   24   50 1
  48   24   51 1
  49   25   26 1
  50   25   31 1
  51   26   52 1
  52   26   53 1
  53   26   54 1
  54   27   29 1
  55   27   30 1
  56   27   28 1
  57   28   55 1
  58   28   56 1
  59   28   57 1
  60   29   58 1
  61   29   59 1
  62   29   60 1
  63   30   61 1
  64   30   62 1
  65   30   63 1
  66   31   64 1
  67   31   65 1
  68   31   66 1

#	End of record

