#	Name: ASD00170436
#	Creating user name:	WinNT
#	Creation time:	15. 06. 2019 18:32

#	Modifying user name:	WinNT
#	Modification time:	15. 06. 2019 18:32

#	Program:	/corina/corina34_cracker 3.40 0067  02.08.2006

@<TRIPOS>MOLECULE
ASD00170436
  69   73    0    0    0
SMALL
NO_CHARGES


@<TRIPOS>ATOM
   1 C1            -4.2123    -1.4089    -1.0915 C.2     
   2 C2            -3.1216    -1.6411    -0.2799 C.2     
   3 C3            -2.3802    -2.7669    -0.6474 C.2     
   4 C4            -2.8677    -3.4092    -1.7185 C.2     
   5 S5            -4.3117    -2.6015    -2.3072 S.3     
   6 C6            -1.1463    -3.2171     0.0913 C.3     
   7 N7            -5.0989    -0.3657    -0.9385 N.pl3   
   8 C8            -2.7736    -0.7889     0.8586 C.2     
   9 C9            -1.8409     0.3439     0.6763 C.ar    
  10 O10           -3.2523    -1.0128     1.9555 O.2     
  11 C11           -1.5920     1.2236     1.7315 C.ar    
  12 C12           -0.7207     2.2778     1.5556 C.ar    
  13 C13           -0.0934     2.4652     0.3350 C.ar    
  14 C14           -0.3364     1.5958    -0.7156 C.ar    
  15 C15           -1.2012     0.5346    -0.5500 C.ar    
  16 Cl16           1.0013     3.7955     0.1208 Cl      
  17 N17           -1.4901    -3.5023     1.4907 N.3     
  18 C18           -2.2780    -4.6243    -2.3144 C.ar    
  19 C19           -2.1226    -4.8219     1.6190 C.3     
  20 C20           -0.3068    -3.3994     2.3551 C.3     
  21 C21           -3.5358    -4.7691     1.0350 C.3     
  22 C22           -4.1945    -6.1435     1.1686 C.3     
  23 C23           -3.3670    -7.1818     0.4083 C.3     
  24 C24           -1.9538    -7.2346     0.9923 C.3     
  25 C25           -1.2951    -5.8602     0.8587 C.3     
  26 C26            0.2083    -1.9588     2.3451 C.3     
  27 C27            1.4408    -1.8516     3.2453 C.3     
  28 C28            1.0649    -2.2490     4.6742 C.3     
  29 C29            0.5497    -3.6896     4.6841 C.3     
  30 C30           -0.6828    -3.7968     3.7839 C.3     
  31 C31           -3.0740    -5.7368    -2.6178 C.ar    
  32 C32           -2.4816    -6.8503    -3.1733 C.ar    
  33 N33           -1.1849    -6.8771    -3.4192 N.ar    
  34 C34           -0.3988    -5.8516    -3.1490 C.ar    
  35 C35           -0.9077    -4.6953    -2.5979 C.ar    
  36 H36           -0.7513    -4.1187    -0.3768 H       
  37 H37           -0.3937    -2.4294     0.0553 H       
  38 H38           -5.0216     0.2285    -0.1757 H       
  39 H39           -5.8004    -0.2253    -1.5935 H       
  40 H40           -2.0811     1.0788     2.6835 H       
  41 H41           -0.5274     2.9590     2.3712 H       
  42 H42            0.1557     1.7470    -1.6650 H       
  43 H43           -1.3896    -0.1429    -1.3697 H       
  44 H44           -2.1747    -5.0990     2.6719 H       
  45 H45            0.4722    -4.0663     1.9855 H       
  46 H46           -4.1253    -4.0294     1.5766 H       
  47 H47           -3.4837    -4.4920    -0.0179 H       
  48 H48           -4.2467    -6.4207     2.2215 H       
  49 H49           -5.2013    -6.1059     0.7525 H       
  50 H50           -3.8363    -8.1610     0.5035 H       
  51 H51           -3.3148    -6.9047    -0.6446 H       
  52 H52           -2.0059    -7.5117     2.0452 H       
  53 H53           -1.3642    -7.9743     0.4507 H       
  54 H54           -1.2429    -5.5830    -0.1942 H       
  55 H55           -0.2883    -5.8978     1.2748 H       
  56 H56            0.4762    -1.6757     1.3272 H       
  57 H57           -0.5706    -1.2918     2.7147 H       
  58 H58            2.2198    -2.5185     2.8758 H       
  59 H59            1.8078    -0.8253     3.2383 H       
  60 H60            1.9429    -2.1726     5.3155 H       
  61 H61            0.2859    -1.5820     5.0438 H       
  62 H62            1.3287    -4.3565     4.3146 H       
  63 H63            0.2819    -3.9727     5.7021 H       
  64 H64           -1.4617    -3.1298     4.1535 H       
  65 H65           -1.0497    -4.8231     3.7910 H       
  66 H66           -4.1355    -5.7221    -2.4190 H       
  67 H67           -3.0865    -7.7130    -3.4104 H       
  68 H68            0.6569    -5.9179    -3.3668 H       
  69 H69           -0.2587    -3.8601    -2.3798 H       
@<TRIPOS>BOND
   1    1    2 2
   2    1    7 1
   3    1    5 1
   4    2    3 1
   5    2    8 1
   6    3    4 2
   7    3    6 1
   8    4    5 1
   9    4   18 1
  10    6   17 1
  11    6   36 1
  12    6   37 1
  13    7   38 1
  14    7   39 1
  15    8    9 1
  16    8   10 2
  17    9   11 ar
  18    9   15 ar
  19   11   12 ar
  20   11   40 1
  21   12   13 ar
  22   12   41 1
  23   13   14 ar
  24   13   16 1
  25   14   15 ar
  26   14   42 1
  27   15   43 1
  28   17   19 1
  29   17   20 1
  30   18   31 ar
  31   18   35 ar
  32   19   21 1
  33   19   25 1
  34   19   44 1
  35   20   26 1
  36   20   30 1
  37   20   45 1
  38   21   22 1
  39   21   46 1
  40   21   47 1
  41   22   23 1
  42   22   48 1
  43   22   49 1
  44   23   24 1
  45   23   50 1
  46   23   51 1
  47   24   25 1
  48   24   52 1
  49   24   53 1
  50   25   54 1
  51   25   55 1
  52   26   27 1
  53   26   56 1
  54   26   57 1
  55   27   28 1
  56   27   58 1
  57   27   59 1
  58   28   29 1
  59   28   60 1
  60   28   61 1
  61   29   30 1
  62   29   62 1
  63   29   63 1
  64   30   64 1
  65   30   65 1
  66   31   32 ar
  67   31   66 1
  68   32   33 ar
  69   32   67 1
  70   33   34 ar
  71   34   35 ar
  72   34   68 1
  73   35   69 1

#	End of record

