#	Name: ASD03900009
#	Creating user name:	WinNT
#	Creation time:	15. 06. 2019 20:47

#	Modifying user name:	WinNT
#	Modification time:	15. 06. 2019 20:47

#	Program:	/corina/corina34_cracker 3.40 0067  02.08.2006

@<TRIPOS>MOLECULE
ASD03900009
  50   52    0    0    0
SMALL
NO_CHARGES


@<TRIPOS>ATOM
   1 C1            -0.0233     1.4978     0.0024 C.3     
   2 C2            -0.2602     0.0161     0.1425 C.ar    
   3 C3             1.4585     1.7662    -0.0559 C.ar    
   4 C4            -0.6737     1.9930    -1.2636 C.ar    
   5 C5            -0.6267     2.2267     1.2046 C.3     
   6 C6            -1.5519    -0.4740     0.1985 C.ar    
   7 C7            -1.7717    -1.8317     0.3273 C.ar    
   8 C8            -0.6952    -2.7037     0.4001 C.ar    
   9 C9             0.5999    -2.2095     0.3433 C.ar    
  10 C10            0.8144    -0.8514     0.2091 C.ar    
  11 C11            2.1959     1.3340    -1.1428 C.ar    
  12 C12            3.5544     1.5785    -1.1984 C.ar    
  13 C13            4.1786     2.2586    -0.1628 C.ar    
  14 C14            3.4364     2.6916     0.9264 C.ar    
  15 C15            2.0772     2.4492     0.9748 C.ar    
  16 C16           -0.7237     3.3484    -1.5305 C.ar    
  17 C17           -1.3204     3.8027    -2.6918 C.ar    
  18 C18           -1.8666     2.9015    -3.5864 C.ar    
  19 C19           -1.8158     1.5460    -3.3200 C.ar    
  20 C20           -1.2153     1.0915    -2.1608 C.ar    
  21 O21           -0.9089    -4.0400     0.5274 O.3     
  22 C22           -1.3070    -4.7010    -0.5714 C.2     
  23 O23            5.5152     2.5000    -0.2149 O.3     
  24 C24            5.9268     3.4750    -1.0411 C.2     
  25 C25            7.4000     3.7219    -1.2403 C.3     
  26 O26            5.1160     4.1545    -1.6249 O.2     
  27 C27           -1.4553    -6.2003    -0.5364 C.3     
  28 O28           -1.5462    -4.0938    -1.5882 O.2     
  29 H29           -0.1563     1.8685     2.1203 H       
  30 H30           -0.4553     3.2983     1.1033 H       
  31 H31           -1.6985     2.0325     1.2468 H       
  32 H32           -2.3896     0.2052     0.1418 H       
  33 H33           -2.7809    -2.2140     0.3717 H       
  34 H34            1.4396    -2.8863     0.4001 H       
  35 H35            1.8223    -0.4662     0.1644 H       
  36 H36            1.7096     0.8046    -1.9487 H       
  37 H37            4.1302     1.2401    -2.0471 H       
  38 H38            3.9201     3.2209     1.7340 H       
  39 H39            1.4989     2.7864     1.8223 H       
  40 H40           -0.2969     4.0525    -0.8316 H       
  41 H41           -1.3600     4.8617    -2.8999 H       
  42 H42           -2.3334     3.2564    -4.4933 H       
  43 H43           -2.2429     0.8420    -4.0187 H       
  44 H44           -1.1756     0.0325    -1.9526 H       
  45 H45            7.9715     3.0170    -0.6366 H       
  46 H46            7.6521     3.5872    -2.2922 H       
  47 H47            7.6421     4.7403    -0.9363 H       
  48 H48           -1.1977    -6.5678     0.4569 H       
  49 H49           -2.4862    -6.4688    -0.7671 H       
  50 H50           -0.7894    -6.6486    -1.2737 H       
@<TRIPOS>BOND
   1    1    2 1
   2    1    3 1
   3    1    4 1
   4    1    5 1
   5    2    6 ar
   6    2   10 ar
   7    3   11 ar
   8    3   15 ar
   9    4   16 ar
  10    4   20 ar
  11    5   29 1
  12    5   30 1
  13    5   31 1
  14    6    7 ar
  15    6   32 1
  16    7    8 ar
  17    7   33 1
  18    8    9 ar
  19    8   21 1
  20    9   10 ar
  21    9   34 1
  22   10   35 1
  23   11   12 ar
  24   11   36 1
  25   12   13 ar
  26   12   37 1
  27   13   14 ar
  28   13   23 1
  29   14   15 ar
  30   14   38 1
  31   15   39 1
  32   16   17 ar
  33   16   40 1
  34   17   18 ar
  35   17   41 1
  36   18   19 ar
  37   18   42 1
  38   19   20 ar
  39   19   43 1
  40   20   44 1
  41   21   22 1
  42   22   27 1
  43   22   28 2
  44   23   24 1
  45   24   25 1
  46   24   26 2
  47   25   45 1
  48   25   46 1
  49   25   47 1
  50   27   48 1
  51   27   49 1
  52   27   50 1

#	End of record

