#	Name: ASD01901368
#	Creating user name:	WinNT
#	Creation time:	15. 06. 2019 19:53

#	Modifying user name:	WinNT
#	Modification time:	15. 06. 2019 19:53

#	Program:	/corina/corina34_cracker 3.40 0067  02.08.2006

@<TRIPOS>MOLECULE
ASD01901368
  39   42    0    0    0
SMALL
NO_CHARGES


@<TRIPOS>ATOM
   1 C1            -0.0169     1.3939     0.0097 C.ar    
   2 C2             1.1760     2.0980     0.0021 C.ar    
   3 C3             2.3805     1.4195    -0.0135 C.ar    
   4 C4             2.4023     0.0365    -0.0211 C.ar    
   5 C5             1.2206    -0.6775    -0.0137 C.ar    
   6 C6             0.0021    -0.0041     0.0020 C.ar    
   7 C7            -1.2708    -0.7667     0.0106 C.2     
   8 N8            -3.1793    -1.5373    -1.1465 N.2     
   9 C9            -2.0556    -0.8630    -1.1592 C.2     
  10 C10           -1.6974    -1.3906     1.1495 C.2     
  11 N11           -2.8719    -2.0830     1.1229 N.pl3   
  12 C12           -3.6083    -2.1481    -0.0319 C.2     
  13 C13           -3.5488    -2.7963     2.0751 C.2     
  14 C14           -4.6678    -3.2751     1.4911 C.2     
  15 N15           -4.6899    -2.8730     0.2170 N.2     
  16 C16           -5.7178    -4.1209     2.1643 C.3     
  17 O17           -5.3490    -4.3428     3.5270 O.3     
  18 C18           -6.1955    -5.0932     4.2811 C.ar    
  19 C19           -7.3536    -5.6095     3.7188 C.ar    
  20 C20           -5.8989    -5.3479     5.6119 C.ar    
  21 C21           -6.7596    -6.1110     6.3770 C.ar    
  22 C22           -7.9177    -6.6217     5.8158 C.ar    
  23 C23           -8.2126    -6.3722     4.4862 C.ar    
  24 F24           -8.7582    -7.3686     6.5648 F       
  25 O25           -1.2012     2.0595     0.0302 O.3     
  26 H26            1.1651     3.1779     0.0080 H       
  27 H27            3.3085     1.9719    -0.0201 H       
  28 H28            3.3471    -0.4867    -0.0333 H       
  29 H29            1.2413    -1.7573    -0.0204 H       
  30 H30           -1.7289    -0.3789    -2.0677 H       
  31 H31           -1.1132    -1.3363     2.0563 H       
  32 H32           -3.2447    -2.9479     3.1002 H       
  33 H33           -6.6779    -3.6061     2.1270 H       
  34 H34           -5.7986    -5.0781     1.6492 H       
  35 H35           -7.5838    -5.4150     2.6817 H       
  36 H36           -4.9952    -4.9502     6.0497 H       
  37 H37           -6.5289    -6.3095     7.4132 H       
  38 H38           -9.1144    -6.7744     4.0487 H       
  39 H39           -1.5314     2.2475     0.9195 H       
@<TRIPOS>BOND
   1    1    6 ar
   2    1    2 ar
   3    1   25 1
   4    2    3 ar
   5    2   26 1
   6    3    4 ar
   7    3   27 1
   8    4    5 ar
   9    4   28 1
  10    5    6 ar
  11    5   29 1
  12    6    7 1
  13    7   10 2
  14    7    9 1
  15    8    9 2
  16    8   12 1
  17    9   30 1
  18   10   11 1
  19   10   31 1
  20   11   13 1
  21   11   12 1
  22   12   15 2
  23   13   14 2
  24   13   32 1
  25   14   15 1
  26   14   16 1
  27   16   17 1
  28   16   33 1
  29   16   34 1
  30   17   18 1
  31   18   20 ar
  32   18   19 ar
  33   19   23 ar
  34   19   35 1
  35   20   21 ar
  36   20   36 1
  37   21   22 ar
  38   21   37 1
  39   22   23 ar
  40   22   24 1
  41   23   38 1
  42   25   39 1

#	End of record

