#	Name: ASD01320114
#	Creating user name:	WinNT
#	Creation time:	15. 06. 2019 19:16

#	Modifying user name:	WinNT
#	Modification time:	15. 06. 2019 19:16

#	Program:	/corina/corina34_cracker 3.40 0067  02.08.2006

@<TRIPOS>MOLECULE
ASD01320114
  43   44    0    0    0
SMALL
NO_CHARGES


@<TRIPOS>ATOM
   1 C1            -0.0178     1.4608     0.0101 C.3     
   2 N2             0.0021    -0.0041     0.0020 N.am    
   3 S3            -2.0137     0.1413     1.7254 S.2     
   4 C4             1.4184     1.9909     0.0057 C.3     
   5 N5            -0.8573    -2.0417     0.7496 N.am    
   6 O6             2.1225     1.4718     1.1357 O.3     
   7 C7             2.1160     1.5425    -1.2822 C.3     
   8 N8             0.0740    -2.7253    -0.0429 N.2     
   9 O9             2.1917     0.1159    -1.3131 O.3     
  10 C10            1.3094     2.0390    -2.4861 C.3     
  11 O11            1.9112     1.5650    -3.6924 O.3     
  12 C12           -0.1226     1.5070    -2.3855 C.3     
  13 O13           -0.7025     1.9345    -1.1513 O.3     
  14 C14           -0.9509     2.0477    -3.5527 C.3     
  15 O15           -2.2533     1.4602    -3.5250 O.3     
  16 C16           -0.8756    -0.6941     0.7570 C.2     
  17 O17            2.0412    -8.1652    -1.6925 O.3     
  18 C18            0.0916    -4.0227    -0.0501 C.2     
  19 C19            1.0721    -4.7424    -0.8844 C.ar    
  20 C20            1.0934    -6.1381    -0.8941 C.ar    
  21 C21            2.0167    -6.8064    -1.6803 C.ar    
  22 C22            2.9176    -6.0893    -2.4560 C.ar    
  23 C23            2.8984    -4.7065    -2.4474 C.ar    
  24 C24            1.9795    -4.0298    -1.6725 C.ar    
  25 H25           -0.5323     1.8124     0.9043 H       
  26 H26            0.6469    -0.4774    -0.5467 H       
  27 H27            1.4049     3.0797     0.0537 H       
  28 H28           -1.4890    -2.5383     1.2930 H       
  29 H29            1.7324     1.7130     1.9870 H       
  30 H30            3.1214     1.9619    -1.3173 H       
  31 H31            2.6838    -0.2679    -0.5744 H       
  32 H32            1.2946     3.1289    -2.4902 H       
  33 H33            2.8233     1.8602    -3.8193 H       
  34 H34           -0.1092     0.4178    -2.4228 H       
  35 H35           -1.0389     3.1306    -3.4651 H       
  36 H36           -0.4597     1.7980    -4.4932 H       
  37 H37           -2.8344     1.7580    -4.2382 H       
  38 H38            1.4737    -8.5628    -2.3669 H       
  39 H39           -0.6117    -4.5757     0.5549 H       
  40 H40            0.3923    -6.6948    -0.2900 H       
  41 H41            3.6365    -6.6135    -3.0682 H       
  42 H42            3.6024    -4.1547    -3.0526 H       
  43 H43            1.9643    -2.9499    -1.6716 H       
@<TRIPOS>BOND
   1    1    2 1
   2    1    4 1
   3    1   13 1
   4    1   25 1
   5    2   16 am
   6    2   26 1
   7    3   16 2
   8    4    6 1
   9    4    7 1
  10    4   27 1
  11    5    8 1
  12    5   16 am
  13    5   28 1
  14    6   29 1
  15    7    9 1
  16    7   10 1
  17    7   30 1
  18    8   18 2
  19    9   31 1
  20   10   11 1
  21   10   12 1
  22   10   32 1
  23   11   33 1
  24   12   13 1
  25   12   14 1
  26   12   34 1
  27   14   15 1
  28   14   35 1
  29   14   36 1
  30   15   37 1
  31   17   21 1
  32   17   38 1
  33   18   19 1
  34   18   39 1
  35   19   20 ar
  36   19   24 ar
  37   20   21 ar
  38   20   40 1
  39   21   22 ar
  40   22   23 ar
  41   22   41 1
  42   23   24 ar
  43   23   42 1
  44   24   43 1

#	End of record

