#	Name: ASD02198312
#	Creating user name:	WinNT
#	Creation time:	15. 06. 2019 20:19

#	Modifying user name:	WinNT
#	Modification time:	15. 06. 2019 20:19

#	Program:	/corina/corina34_cracker 3.40 0067  02.08.2006

@<TRIPOS>MOLECULE
ASD02198312
  38   40    0    0    0
SMALL
NO_CHARGES


@<TRIPOS>ATOM
   1 C1             0.4772     1.5500     0.0838 C.2     
   2 C2             0.6359     0.1774     0.1477 C.2     
   3 S3             2.0615     2.2835     0.3197 S.3     
   4 C4             2.7722     0.7378     0.4777 C.2     
   5 N5             1.8753    -0.1988     0.3587 N.2     
   6 N6            -0.4137    -0.7153     0.0032 N.pl3   
   7 C7            -0.7311     2.2367    -0.1360 C.2     
   8 C8            -0.7716     3.7131    -0.0388 C.ar    
   9 O9            -1.7449     1.6154    -0.4066 O.2     
  10 N10            4.1121     0.5128     0.7002 N.pl3   
  11 C11            4.5742    -0.7879     0.9339 C.ar    
  12 C12            5.8785    -1.1317     0.6035 C.ar    
  13 C13           -1.7032     4.4388    -0.7821 C.ar    
  14 C14            0.1179     4.3846     0.8007 C.ar    
  15 C15            0.0750     5.7609     0.8868 C.ar    
  16 C16           -0.8473     6.4751     0.1429 C.ar    
  17 C17           -1.7358     5.8148    -0.6871 C.ar    
  18 C18            6.3334    -2.4149     0.8342 C.ar    
  19 C19            5.4878    -3.3606     1.3954 C.ar    
  20 C20            4.1848    -3.0181     1.7257 C.ar    
  21 C21            3.7302    -1.7336     1.5014 C.ar    
  22 O22            5.9364    -4.6243     1.6214 O.3     
  23 C23            5.0120    -5.5466     2.2019 C.3     
  24 H24           -1.3129    -0.3857    -0.1511 H       
  25 H25           -0.2495    -1.6698     0.0563 H       
  26 H26            4.7360     1.2555     0.6952 H       
  27 H27            6.5367    -0.3957     0.1659 H       
  28 H28           -2.3971     3.9246    -1.4305 H       
  29 H29            0.8381     3.8282     1.3822 H       
  30 H30            0.7627     6.2818     1.5366 H       
  31 H31           -0.8768     7.5524     0.2138 H       
  32 H32           -2.4534     6.3780    -1.2652 H       
  33 H33            7.3478    -2.6824     0.5773 H       
  34 H34            3.5271    -3.7549     2.1626 H       
  35 H35            2.7158    -1.4670     1.7589 H       
  36 H36            5.4961    -6.5150     2.3285 H       
  37 H37            4.6873    -5.1730     3.1730 H       
  38 H38            4.1476    -5.6555     1.5469 H       
@<TRIPOS>BOND
   1    1    2 2
   2    1    3 1
   3    1    7 1
   4    2    6 1
   5    2    5 1
   6    3    4 1
   7    4    5 2
   8    4   10 1
   9    6   24 1
  10    6   25 1
  11    7    8 1
  12    7    9 2
  13    8   13 ar
  14    8   14 ar
  15   10   11 1
  16   10   26 1
  17   11   12 ar
  18   11   21 ar
  19   12   18 ar
  20   12   27 1
  21   13   17 ar
  22   13   28 1
  23   14   15 ar
  24   14   29 1
  25   15   16 ar
  26   15   30 1
  27   16   17 ar
  28   16   31 1
  29   17   32 1
  30   18   19 ar
  31   18   33 1
  32   19   20 ar
  33   19   22 1
  34   20   21 ar
  35   20   34 1
  36   21   35 1
  37   22   23 1
  38   23   36 1
  39   23   37 1
  40   23   38 1

#	End of record

