#	Name: ASD04880157
#	Creating user name:	WinNT
#	Creation time:	15. 06. 2019 20:52

#	Modifying user name:	WinNT
#	Modification time:	15. 06. 2019 20:52

#	Program:	/corina/corina34_cracker 3.40 0067  02.08.2006

@<TRIPOS>MOLECULE
ASD04880157
  36   38    0    0    0
SMALL
NO_CHARGES


@<TRIPOS>ATOM
   1 C1            -0.0144     1.2118     0.0087 C.2     
   2 O2             0.0712    -0.0009     0.0325 O.2     
   3 N3             1.1015     1.9651    -0.0521 N.am    
   4 N4             1.1373     3.3502    -0.1989 N.2     
   5 C5             2.3266     3.8457    -0.2302 C.2     
   6 C6             3.3410     2.7328    -0.0936 C.3     
   7 C7             2.4810     1.4597     0.0320 C.3     
   8 C8             1.6254     6.2298    -0.4975 C.ar    
   9 C9             2.6483     5.2761    -0.3774 C.ar    
  10 C10            3.9787     5.7083    -0.3995 C.ar    
  11 C11            4.2275     7.0634    -0.5395 C.ar    
  12 C12            3.1659     7.9412    -0.6522 C.ar    
  13 N13            1.9180     7.5113    -0.6289 N.ar    
  14 O14            0.3292     5.8328    -0.4843 O.3     
  15 C15           -0.6632     6.8532    -0.6106 C.3     
  16 C16           -1.3425     1.8596     0.0404 C.ar    
  17 C17           -2.5015     1.0868    -0.0504 C.ar    
  18 C18           -3.7397     1.6991    -0.0201 C.ar    
  19 C19           -3.8309     3.0769     0.0995 C.ar    
  20 C20           -2.6852     3.8464     0.1893 C.ar    
  21 C21           -1.4430     3.2460     0.1669 C.ar    
  22 F22           -4.8630     0.9538    -0.1078 F       
  23 H23            3.9759     2.6835    -0.9783 H       
  24 H24            3.9439     2.8731     0.8035 H       
  25 H25            2.6529     0.9717     0.9914 H       
  26 H26            2.6895     0.7753    -0.7904 H       
  27 H27            4.7914     5.0028    -0.3093 H       
  28 H28            5.2427     7.4313    -0.5600 H       
  29 H29            3.3608     8.9979    -0.7610 H       
  30 H30           -0.5271     7.3773    -1.5566 H       
  31 H31           -1.6547     6.4009    -0.5851 H       
  32 H32           -0.5649     7.5597     0.2136 H       
  33 H33           -2.4305     0.0133    -0.1443 H       
  34 H34           -4.8007     3.5517     0.1224 H       
  35 H35           -2.7631     4.9196     0.2820 H       
  36 H36           -0.5498     3.8484     0.2420 H       
@<TRIPOS>BOND
   1    1    2 2
   2    1    3 am
   3    1   16 1
   4    3    4 1
   5    3    7 1
   6    4    5 2
   7    5    6 1
   8    5    9 1
   9    6    7 1
  10    6   23 1
  11    6   24 1
  12    7   25 1
  13    7   26 1
  14    8    9 ar
  15    8   13 ar
  16    8   14 1
  17    9   10 ar
  18   10   11 ar
  19   10   27 1
  20   11   12 ar
  21   11   28 1
  22   12   13 ar
  23   12   29 1
  24   14   15 1
  25   15   30 1
  26   15   31 1
  27   15   32 1
  28   16   17 ar
  29   16   21 ar
  30   17   18 ar
  31   17   33 1
  32   18   19 ar
  33   18   22 1
  34   19   20 ar
  35   19   34 1
  36   20   21 ar
  37   20   35 1
  38   21   36 1

#	End of record

