#	Name: ASD03730743
#	Creating user name:	WinNT
#	Creation time:	15. 06. 2019 20:44

#	Modifying user name:	WinNT
#	Modification time:	15. 06. 2019 20:44

#	Program:	/corina/corina34_cracker 3.40 0067  02.08.2006

@<TRIPOS>MOLECULE
ASD03730743
  62   68    0    0    0
SMALL
NO_CHARGES


@<TRIPOS>ATOM
   1 C1             1.3662    -1.2416    -2.5546 C.2     
   2 C2             0.7534    -1.4899    -1.2326 C.ar    
   3 C3             1.4899    -1.2732    -0.0666 C.ar    
   4 C4             0.9119    -1.5065     1.1639 C.ar    
   5 C5            -0.3951    -1.9542     1.2441 C.ar    
   6 C6            -1.1303    -2.1713     0.0926 C.ar    
   7 C7            -0.5660    -1.9364    -1.1444 C.ar    
   8 O8             2.4843    -0.7700    -2.6274 O.2     
   9 N9             0.6876    -1.5432    -3.6793 N.am    
  10 C10            2.9135    -0.7862    -0.1521 C.3     
  11 O11            1.4175    -3.3889     6.3808 O.3     
  12 C12            1.6324    -3.4748     7.8019 C.3     
  13 O13            3.0643    -3.4069     7.9363 O.3     
  14 C14            3.5010    -2.7067     6.8483 C.ar    
  15 C15            2.4883    -2.6968     5.8918 C.ar    
  16 C16            4.7000    -2.0656     6.5929 C.ar    
  17 C17            4.9049    -1.4096     5.3828 C.ar    
  18 C18            3.8890    -1.4136     4.4319 C.ar    
  19 C19            2.6902    -2.0467     4.6859 C.ar    
  20 O20            5.9906    -0.7110     4.9428 O.3     
  21 C21            4.4142    -0.6592     3.2399 C.3     
  22 C22            5.9230    -0.5811     3.5096 C.3     
  23 N23            3.4095    -0.4889     1.1939 N.am    
  24 C24            4.1122    -1.3591     1.9462 C.2     
  25 C25            3.7980     0.7020     3.1089 C.ar    
  26 C26            3.7287     1.7988     3.9387 C.ar    
  27 C27            3.0720     2.9429     3.5216 C.ar    
  28 C28            2.4850     2.9820     2.2699 C.ar    
  29 C29            2.5509     1.8856     1.4355 C.ar    
  30 C30            3.2102     0.7299     1.8469 C.ar    
  31 O31            4.4371    -2.4864     1.6383 O.2     
  32 C32            1.2514    -1.2722    -4.9301 C.ar    
  33 C33            0.6165    -1.7038    -6.0879 C.ar    
  34 C34            1.1753    -1.4350    -7.3218 C.ar    
  35 C35            2.3660    -0.7368    -7.4063 C.ar    
  36 C36            3.0016    -0.3056    -6.2552 C.ar    
  37 C37            2.4439    -0.5664    -5.0174 C.ar    
  38 C38           -0.6809    -2.4652    -5.9975 C.3     
  39 Cl39           4.4965     0.5700    -6.3659 Cl      
  40 H40            1.4807    -1.3396     2.0667 H       
  41 H41           -0.8429    -2.1352     2.2100 H       
  42 H42           -2.1496    -2.5214     0.1621 H       
  43 H43           -1.1425    -2.1020    -2.0425 H       
  44 H44           -0.1919    -1.9482    -3.6212 H       
  45 H45            3.5349    -1.5580    -0.6061 H       
  46 H46            2.9526     0.1168    -0.7614 H       
  47 H47            1.1597    -2.6355     8.3121 H       
  48 H48            1.2558    -4.4213     8.1897 H       
  49 H49            5.4821    -2.0743     7.3375 H       
  50 H50            1.9070    -2.0356     3.9423 H       
  51 H51            6.3245     0.3801     3.1887 H       
  52 H52            6.4466    -1.4030     3.0213 H       
  53 H53            4.1876     1.7660     4.9158 H       
  54 H54            3.0182     3.8036     4.1717 H       
  55 H55            1.9723     3.8750     1.9444 H       
  56 H56            2.0896     1.9236     0.4597 H       
  57 H57            0.6820    -1.7708    -8.2219 H       
  58 H58            2.8008    -0.5279    -8.3725 H       
  59 H59            2.9373    -0.2253    -4.1193 H       
  60 H60           -1.5156    -1.7646    -6.0190 H       
  61 H61           -0.7597    -3.1504    -6.8415 H       
  62 H62           -0.7057    -3.0314    -5.0664 H       
@<TRIPOS>BOND
   1    1    2 1
   2    1    8 2
   3    1    9 am
   4    2    3 ar
   5    2    7 ar
   6    3    4 ar
   7    3   10 1
   8    4    5 ar
   9    4   40 1
  10    5    6 ar
  11    5   41 1
  12    6    7 ar
  13    6   42 1
  14    7   43 1
  15    9   32 1
  16    9   44 1
  17   10   23 1
  18   10   45 1
  19   10   46 1
  20   11   12 1
  21   11   15 1
  22   12   13 1
  23   12   47 1
  24   12   48 1
  25   13   14 1
  26   14   15 ar
  27   14   16 ar
  28   15   19 ar
  29   16   17 ar
  30   16   49 1
  31   17   18 ar
  32   17   20 1
  33   18   19 ar
  34   18   21 1
  35   19   50 1
  36   20   22 1
  37   21   22 1
  38   21   24 1
  39   21   25 1
  40   22   51 1
  41   22   52 1
  42   23   24 am
  43   23   30 1
  44   24   31 2
  45   25   26 ar
  46   25   30 ar
  47   26   27 ar
  48   26   53 1
  49   27   28 ar
  50   27   54 1
  51   28   29 ar
  52   28   55 1
  53   29   30 ar
  54   29   56 1
  55   32   33 ar
  56   32   37 ar
  57   33   34 ar
  58   33   38 1
  59   34   35 ar
  60   34   57 1
  61   35   36 ar
  62   35   58 1
  63   36   37 ar
  64   36   39 1
  65   37   59 1
  66   38   60 1
  67   38   61 1
  68   38   62 1

#	End of record

