#	Name: ASD01815843
#	Creating user name:	WinNT
#	Creation time:	15. 06. 2019 19:34

#	Modifying user name:	WinNT
#	Modification time:	15. 06. 2019 19:34

#	Program:	/corina/corina34_cracker 3.40 0067  02.08.2006

@<TRIPOS>MOLECULE
ASD01815843
  57   62    0    0    0
SMALL
NO_CHARGES


@<TRIPOS>ATOM
   1 C1            -0.0671     1.3241    -0.3197 C.ar    
   2 C2            -0.0273    -0.0564    -0.1521 C.ar    
   3 C3             1.1599    -0.7252    -0.1193 C.ar    
   4 C4             2.3629    -0.0158    -0.2561 C.ar    
   5 C5             2.3185     1.3895    -0.4265 C.ar    
   6 C6             1.0833     2.0448    -0.4557 C.ar    
   7 C7             3.6066    -0.6808    -0.2266 C.ar    
   8 C8             4.7692     0.0015    -0.3588 C.ar    
   9 C9             4.7808     1.3945    -0.5301 C.ar    
  10 C10            3.5754     2.1188    -0.5680 C.ar    
  11 C11            6.0350     2.1444    -0.6755 C.2     
  12 N12            5.9449     3.4850    -0.8370 N.am    
  13 C13            4.7340     4.0957    -0.8607 C.2     
  14 N14            3.6106     3.4516    -0.7342 N.2     
  15 C15            7.1645     4.2827    -0.9868 C.3     
  16 C16            7.1400     5.0079    -2.3359 C.3     
  17 C17            7.2391     5.3208     0.1371 C.3     
  18 C18            8.4746     6.2003    -0.0723 C.3     
  19 O19            8.4036     6.8208    -1.3577 O.3     
  20 C20            8.3793     5.8995    -2.4498 C.3     
  21 O21            7.1147     1.5815    -0.6513 O.2     
  22 C22            3.6424    -2.1763    -0.0442 C.3     
  23 C23            5.0609    -2.6656    -0.1843 C.ar    
  24 O24            7.3356     4.6541     1.3973 O.3     
  25 C25            5.8850    -2.8109     0.9338 C.ar    
  26 C26            5.5833    -2.9896    -1.4235 C.ar    
  27 C27            6.8934    -3.4368    -1.5141 C.ar    
  28 N28            7.6544    -3.5610    -0.4474 N.ar    
  29 C29            7.2055    -3.2706     0.7663 C.ar    
  30 Cl30           4.6085    -2.8386    -2.8520 Cl      
  31 N31            7.7776    -3.3113     2.0156 N.pl3   
  32 C32            6.8730    -2.9032     2.9589 C.2     
  33 C33            5.7093    -2.5864     2.3697 C.2     
  34 C34            9.1530    -3.7304     2.2965 C.3     
  35 H35           -1.0205     1.8309    -0.3469 H       
  36 H36           -0.9508    -0.6063    -0.0461 H       
  37 H37            1.1747    -1.7971     0.0118 H       
  38 H38            1.0404     3.1161    -0.5856 H       
  39 H39            5.7051    -0.5367    -0.3316 H       
  40 H40            4.7007     5.1674    -0.9906 H       
  41 H41            8.0357     3.6293    -0.9398 H       
  42 H42            7.1427     4.2755    -3.1432 H       
  43 H43            6.2420     5.6220    -2.4030 H       
  44 H44            6.3431     5.9413     0.1199 H       
  45 H45            8.5094     6.9682     0.7005 H       
  46 H46            9.3726     5.5853    -0.0147 H       
  47 H47            9.2761     5.2805    -2.4232 H       
  48 H48            8.3455     6.4505    -3.3896 H       
  49 H49            3.2666    -2.4305     0.9468 H       
  50 H50            3.0182    -2.6498    -0.8020 H       
  51 H51            7.3867     5.2519     2.1557 H       
  52 H52            7.2984    -3.6894    -2.4829 H       
  53 H53            7.0679    -2.8423     4.0194 H       
  54 H54            4.8147    -2.2331     2.8609 H       
  55 H55            9.8131    -2.8641     2.2517 H       
  56 H56            9.2019    -4.1734     3.2912 H       
  57 H57            9.4674    -4.4654     1.5555 H       
@<TRIPOS>BOND
   1    1    2 ar
   2    1    6 ar
   3    1   35 1
   4    2    3 ar
   5    2   36 1
   6    3    4 ar
   7    3   37 1
   8    4    5 ar
   9    4    7 ar
  10    5    6 ar
  11    5   10 ar
  12    6   38 1
  13    7    8 ar
  14    7   22 1
  15    8    9 ar
  16    8   39 1
  17    9   10 ar
  18    9   11 1
  19   10   14 1
  20   11   12 am
  21   11   21 2
  22   12   13 1
  23   12   15 1
  24   13   14 2
  25   13   40 1
  26   15   16 1
  27   15   17 1
  28   15   41 1
  29   16   20 1
  30   16   42 1
  31   16   43 1
  32   17   18 1
  33   17   24 1
  34   17   44 1
  35   18   19 1
  36   18   45 1
  37   18   46 1
  38   19   20 1
  39   20   47 1
  40   20   48 1
  41   22   23 1
  42   22   49 1
  43   22   50 1
  44   23   26 ar
  45   23   25 ar
  46   24   51 1
  47   25   29 ar
  48   25   33 1
  49   26   27 ar
  50   26   30 1
  51   27   28 ar
  52   27   52 1
  53   28   29 ar
  54   29   31 1
  55   31   32 1
  56   31   34 1
  57   32   33 2
  58   32   53 1
  59   33   54 1
  60   34   55 1
  61   34   56 1
  62   34   57 1

#	End of record

