#	Name: ASD01882422
#	Creating user name:	WinNT
#	Creation time:	15. 06. 2019 19:44

#	Modifying user name:	WinNT
#	Modification time:	15. 06. 2019 19:44

#	Program:	/corina/corina34_cracker 3.40 0067  02.08.2006

@<TRIPOS>MOLECULE
ASD01882422
  54   58    0    0    0
SMALL
NO_CHARGES


@<TRIPOS>ATOM
   1 N1            -0.0902     1.3470     0.0866 N.pl3   
   2 C2            -0.1444    -0.1176     0.1905 C.3     
   3 C3             0.7261    -0.5607     1.3706 C.3     
   4 C4             2.1375     0.0054     1.1991 C.3     
   5 C5             2.0780     1.5347     1.1903 C.3     
   6 C6             1.2228     2.0016     0.0081 C.3     
   7 N7             2.9817    -0.4437     2.3090 N.pl3   
   8 C8             4.3697    -0.5229     2.1451 C.ar    
   9 C9             5.1723    -0.9492     3.1980 C.ar    
  10 C10            6.5427    -1.0268     3.0328 C.ar    
  11 C11            7.1153    -0.6804     1.8202 C.ar    
  12 C12            6.3176    -0.2561     0.7716 C.ar    
  13 C13            4.9466    -0.1818     0.9301 C.ar    
  14 F14            8.4547    -0.7564     1.6606 F       
  15 F15            4.6135    -1.2866     4.3809 F       
  16 C16           -3.2968     2.7631    -1.0077 C.2     
  17 C17           -2.1212     1.9932    -1.0012 C.2     
  18 C18           -1.2605     2.0995     0.0573 C.2     
  19 C19           -1.5676     2.9772     1.1199 C.2     
  20 C20           -2.7005     3.7060     1.0929 C.2     
  21 N21           -3.5653     3.6074     0.0422 N.pl3   
  22 N22           -5.1525     3.7345    -1.4086 N.2     
  23 N23           -4.2994     2.8860    -1.8642 N.2     
  24 C24           -4.7557     4.2033    -0.2549 C.2     
  25 C25           -1.8126     1.0620    -2.1451 C.3     
  26 F26           -2.2821    -0.2205    -1.8421 F       
  27 F27           -2.4398     1.5260    -3.3064 F       
  28 F28           -0.4292     1.0162    -2.3489 F       
  29 C29           -5.4803     5.2179     0.5916 C.3     
  30 C30           -5.0241     6.6256     0.2027 C.3     
  31 C31           -5.7317     7.8070     0.8695 C.3     
  32 C32           -4.2973     7.4517     1.2659 C.3     
  33 H33           -1.1741    -0.4343     0.3567 H       
  34 H34            0.2331    -0.5634    -0.7297 H       
  35 H35            0.2953    -0.1888     2.3003 H       
  36 H36            0.7719    -1.6494     1.4003 H       
  37 H37            2.5582    -0.3470     0.2574 H       
  38 H38            1.6345     1.8869     2.1216 H       
  39 H39            3.0860     1.9374     1.0916 H       
  40 H40            1.7119     1.7286    -0.9270 H       
  41 H41            1.0953     3.0831     0.0540 H       
  42 H42            2.5789    -0.6862     3.1574 H       
  43 H43            7.1671    -1.3573     3.8497 H       
  44 H44            6.7667     0.0134    -0.1729 H       
  45 H45            4.3249     0.1456     0.1099 H       
  46 H46           -0.8918     3.0645     1.9578 H       
  47 H47           -2.9262     4.3745     1.9106 H       
  48 H48           -6.5542     5.1262     0.4292 H       
  49 H49           -5.2554     5.0407     1.6433 H       
  50 H50           -4.7079     6.7479    -0.8332 H       
  51 H51           -5.8807     8.7066     0.2723 H       
  52 H52           -6.5222     7.5813     1.5852 H       
  53 H53           -4.1442     6.9922     2.2424 H       
  54 H54           -3.5026     8.1175     0.9296 H       
@<TRIPOS>BOND
   1    1    2 1
   2    1    6 1
   3    1   18 1
   4    2    3 1
   5    2   33 1
   6    2   34 1
   7    3    4 1
   8    3   35 1
   9    3   36 1
  10    4    5 1
  11    4    7 1
  12    4   37 1
  13    5    6 1
  14    5   38 1
  15    5   39 1
  16    6   40 1
  17    6   41 1
  18    7    8 1
  19    7   42 1
  20    8    9 ar
  21    8   13 ar
  22    9   10 ar
  23    9   15 1
  24   10   11 ar
  25   10   43 1
  26   11   12 ar
  27   11   14 1
  28   12   13 ar
  29   12   44 1
  30   13   45 1
  31   16   17 1
  32   16   21 1
  33   16   23 2
  34   17   18 2
  35   17   25 1
  36   18   19 1
  37   19   20 2
  38   19   46 1
  39   20   21 1
  40   20   47 1
  41   21   24 1
  42   22   23 1
  43   22   24 2
  44   24   29 1
  45   25   26 1
  46   25   27 1
  47   25   28 1
  48   29   30 1
  49   29   48 1
  50   29   49 1
  51   30   31 1
  52   30   32 1
  53   30   50 1
  54   31   32 1
  55   31   51 1
  56   31   52 1
  57   32   53 1
  58   32   54 1

#	End of record

