#	Name: ASD01917253
#	Creating user name:	WinNT
#	Creation time:	15. 06. 2019 20:08

#	Modifying user name:	WinNT
#	Modification time:	15. 06. 2019 20:08

#	Program:	/corina/corina34_cracker 3.40 0067  02.08.2006

@<TRIPOS>MOLECULE
ASD01917253
  40   43    0    0    0
SMALL
NO_CHARGES


@<TRIPOS>ATOM
   1 C1             0.1502     0.6928    -0.4896 C.ar    
   2 C2             0.3170    -0.6664    -0.3006 C.ar    
   3 C3             1.5810    -1.1850    -0.0901 C.ar    
   4 C4             2.6782    -0.3444    -0.0690 C.ar    
   5 C5             2.5115     1.0146    -0.2588 C.ar    
   6 C6             1.2474     1.5334    -0.4680 C.ar    
   7 C7             3.7076     1.9311    -0.2353 C.3     
   8 O8             4.2395     2.0540    -1.5559 O.3     
   9 C9             5.3300     2.8519    -1.7105 C.2     
  10 N10            5.9356     3.5182    -0.7492 N.2     
  11 N11            6.9996     4.2214    -1.2990 N.pl3   
  12 C12            7.0312     3.9450    -2.6476 C.2     
  13 C13            5.9984     3.0959    -2.9182 C.2     
  14 C14            7.9654     5.1263    -0.6733 C.3     
  15 C15            9.2821     5.0719    -1.4479 C.3     
  16 N16            9.0881     5.1625    -2.8907 N.am    
  17 C17            8.0710     4.5220    -3.5155 C.2     
  18 O18            8.0197     4.4287    -4.7271 O.2     
  19 C19            9.9734     5.9292    -3.6474 C.ar    
  20 C20            9.5486     7.0975    -4.2787 C.ar    
  21 C21           11.3079     5.5505    -3.7877 C.ar    
  22 C22           12.1516     6.3363    -4.5448 C.ar    
  23 N23           11.7099     7.4328    -5.1315 N.ar    
  24 C24           10.4557     7.8277    -5.0181 C.ar    
  25 H25           -0.8368     1.0973    -0.6586 H       
  26 H26           -0.5403    -1.3231    -0.3171 H       
  27 H27            1.7112    -2.2468     0.0583 H       
  28 H28            3.6656    -0.7495     0.0963 H       
  29 H29            1.1172     2.5951    -0.6167 H       
  30 H30            3.4056     2.9135     0.1277 H       
  31 H31            4.4691     1.5177     0.4260 H       
  32 H32            5.7393     2.6919    -3.8857 H       
  33 H33            7.5749     6.1438    -0.6903 H       
  34 H34            8.1370     4.8188     0.3582 H       
  35 H35            9.9151     5.8984    -1.1250 H       
  36 H36            9.7871     4.1335    -1.2186 H       
  37 H37            8.5236     7.4260    -4.1902 H       
  38 H38           11.6759     4.6545    -3.3099 H       
  39 H39           13.1870     6.0509    -4.6586 H       
  40 H40           10.1343     8.7313    -5.5147 H       
@<TRIPOS>BOND
   1    1    2 ar
   2    1    6 ar
   3    1   25 1
   4    2    3 ar
   5    2   26 1
   6    3    4 ar
   7    3   27 1
   8    4    5 ar
   9    4   28 1
  10    5    6 ar
  11    5    7 1
  12    6   29 1
  13    7    8 1
  14    7   30 1
  15    7   31 1
  16    8    9 1
  17    9   10 2
  18    9   13 1
  19   10   11 1
  20   11   12 1
  21   11   14 1
  22   12   13 2
  23   12   17 1
  24   13   32 1
  25   14   15 1
  26   14   33 1
  27   14   34 1
  28   15   16 1
  29   15   35 1
  30   15   36 1
  31   16   17 am
  32   16   19 1
  33   17   18 2
  34   19   20 ar
  35   19   21 ar
  36   20   24 ar
  37   20   37 1
  38   21   22 ar
  39   21   38 1
  40   22   23 ar
  41   22   39 1
  42   23   24 ar
  43   24   40 1

#	End of record

