#	Name: ASD01810252
#	Creating user name:	WinNT
#	Creation time:	15. 06. 2019 19:24

#	Modifying user name:	WinNT
#	Modification time:	15. 06. 2019 19:24

#	Program:	/corina/corina34_cracker 3.40 0067  02.08.2006

@<TRIPOS>MOLECULE
ASD01810252
  42   45    0    0    0
SMALL
NO_CHARGES


@<TRIPOS>ATOM
   1 C1             0.0982     1.4760     0.3585 C.ar    
   2 C2             0.0801     0.0883     0.3507 C.ar    
   3 C3             1.2499    -0.6304     0.2197 C.ar    
   4 C4             2.4673     0.0387     0.0930 C.ar    
   5 C5             2.4808     1.4431     0.1009 C.ar    
   6 C6             1.2890     2.1562     0.2347 C.ar    
   7 N7             3.6442    -0.6674    -0.0382 N.pl3   
   8 C8             4.8371    -0.0726    -0.1624 C.2     
   9 C9             4.9771     1.3008    -0.1678 C.2     
  10 C10            3.7744     2.1384    -0.0339 C.2     
  11 O11            3.8446     3.3549    -0.0334 O.2     
  12 C12            6.3048     1.9160    -0.3050 C.2     
  13 O13            6.4285     3.2584    -0.3089 O.3     
  14 O14            7.2915     1.2144    -0.4149 O.2     
  15 C15            3.5869    -2.1313    -0.0413 C.3     
  16 C16            3.4437    -2.6254    -1.4578 C.ar    
  17 C17            4.5585    -2.7705    -2.2623 C.ar    
  18 N18            4.4464    -3.2015    -3.5024 N.ar    
  19 C19            3.2682    -3.5119    -4.0269 C.ar    
  20 C20            2.1029    -3.3895    -3.2726 C.ar    
  21 C21            2.1919    -2.9445    -1.9652 C.ar    
  22 C22            3.1904    -3.9928    -5.4279 C.ar    
  23 F23            1.2168    -1.9810     0.2147 F       
  24 C24            1.9553    -4.2245    -6.0289 C.ar    
  25 N25            1.8842    -4.6521    -7.2731 N.ar    
  26 C26            2.9661    -4.8763    -7.9951 C.ar    
  27 C27            4.2304    -4.6696    -7.4688 C.ar    
  28 C28            4.3557    -4.2153    -6.1682 C.ar    
  29 Cl29           2.8019    -5.4394    -9.6290 Cl      
  30 H30           -0.8266     2.0249     0.4577 H       
  31 H31           -0.8600    -0.4343     0.4485 H       
  32 H32            1.3003     3.2361     0.2404 H       
  33 H33            5.7193    -0.6877    -0.2613 H       
  34 H34            7.3219     3.6167    -0.4015 H       
  35 H35            4.5033    -2.5317     0.3923 H       
  36 H36            2.7314    -2.4627     0.5473 H       
  37 H37            5.5344    -2.5269    -1.8691 H       
  38 H38            1.1443    -3.6425    -3.7009 H       
  39 H39            1.3061    -2.8396    -1.3562 H       
  40 H40            1.0476    -4.0523    -5.4696 H       
  41 H41            5.1087    -4.8567    -8.0687 H       
  42 H42            5.3292    -4.0452    -5.7325 H       
@<TRIPOS>BOND
   1    1    2 ar
   2    1    6 ar
   3    1   30 1
   4    2    3 ar
   5    2   31 1
   6    3    4 ar
   7    3   23 1
   8    4    5 ar
   9    4    7 1
  10    5    6 ar
  11    5   10 1
  12    6   32 1
  13    7    8 1
  14    7   15 1
  15    8    9 2
  16    8   33 1
  17    9   10 1
  18    9   12 1
  19   10   11 2
  20   12   13 1
  21   12   14 2
  22   13   34 1
  23   15   16 1
  24   15   35 1
  25   15   36 1
  26   16   17 ar
  27   16   21 ar
  28   17   18 ar
  29   17   37 1
  30   18   19 ar
  31   19   20 ar
  32   19   22 1
  33   20   21 ar
  34   20   38 1
  35   21   39 1
  36   22   24 ar
  37   22   28 ar
  38   24   25 ar
  39   24   40 1
  40   25   26 ar
  41   26   27 ar
  42   26   29 1
  43   27   28 ar
  44   27   41 1
  45   28   42 1

#	End of record

