#	Name: ASD03330878
#	Creating user name:	WinNT
#	Creation time:	15. 06. 2019 20:38

#	Modifying user name:	WinNT
#	Modification time:	15. 06. 2019 20:38

#	Program:	/corina/corina34_cracker 3.40 0067  02.08.2006

@<TRIPOS>MOLECULE
ASD03330878
  70   73    0    0    0
SMALL
NO_CHARGES


@<TRIPOS>ATOM
   1 N1            -0.8700     1.7514    -0.3927 N.pl3   
   2 C2            -0.7026     0.4336    -0.1013 C.2     
   3 C3             0.6008    -0.2246     0.2695 C.3     
   4 N4             1.2781     0.5887     1.2914 N.3     
   5 C5             2.1350     1.6051     0.6780 C.3     
   6 C6             1.5335     2.1089    -0.6308 C.3     
   7 C7             0.1808     2.7725    -0.3581 C.3     
   8 C8            -2.1852     1.9367    -0.7060 C.2     
   9 N9            -2.8081     0.7866    -0.5954 N.2     
  10 C10           -1.9212    -0.1616    -0.2207 C.2     
  11 C11           -2.2195    -1.5852     0.0154 C.2     
  12 O12           -1.3311    -2.3452     0.3504 O.2     
  13 N13           -3.4768    -2.0450    -0.1399 N.am    
  14 C14           -2.8050     3.2190    -1.1031 C.ar    
  15 C15           -3.6530     3.2741    -2.2127 C.ar    
  16 C16           -4.2299     4.4750    -2.5790 C.ar    
  17 C17           -3.9688     5.6226    -1.8492 C.ar    
  18 C18           -3.1271     5.5735    -0.7467 C.ar    
  19 C19           -2.5501     4.3773    -0.3681 C.ar    
  20 F20           -2.8758     6.6969    -0.0396 F       
  21 F21           -4.5351     6.7944    -2.2119 F       
  22 F22           -3.9078     2.1554    -2.9260 F       
  23 C23            2.0443    -0.2581     2.2154 C.3     
  24 C24           -4.9966    -3.8545    -0.6921 C.2     
  25 C25           -3.7734    -3.4603     0.0949 C.3     
  26 C26           -4.0314    -3.6868     1.5858 C.3     
  27 C27           -4.4412    -5.1427     1.8171 C.3     
  28 N28           -5.1484    -5.1270    -1.1093 N.am    
  29 C29           -6.3826    -5.5516    -1.7839 C.3     
  30 C30           -6.0145    -6.2078    -3.1183 C.3     
  31 C31           -5.0145    -7.3388    -2.8673 C.3     
  32 C32           -3.7401    -6.7660    -2.2429 C.3     
  33 C33           -4.0802    -6.1147    -0.9036 C.3     
  34 O34           -5.8446    -3.0266    -0.9501 O.2     
  35 C35           -2.7564    -3.3843     2.3757 C.3     
  36 C36           -5.1544    -2.7601     2.0557 C.3     
  37 H37            0.4059    -1.2207     0.6668 H       
  38 H38            1.2345    -0.3012    -0.6141 H       
  39 H39            2.2465     2.4426     1.3667 H       
  40 H40            3.1159     1.1736     0.4786 H       
  41 H41            2.2084     2.8349    -1.0840 H       
  42 H42            1.3946     1.2698    -1.3125 H       
  43 H43           -0.0166     3.5246    -1.1219 H       
  44 H44            0.1979     3.2447     0.6241 H       
  45 H45           -4.1854    -1.4388    -0.4071 H       
  46 H46           -4.8854     4.5188    -3.4363 H       
  47 H47           -1.8988     4.3394     0.4926 H       
  48 H48            2.7488    -0.8679     1.6499 H       
  49 H49            2.5908     0.3719     2.9172 H       
  50 H50            1.3618    -0.9065     2.7648 H       
  51 H51           -2.9255    -4.0669    -0.2235 H       
  52 H52           -3.6392    -5.8028     1.4866 H       
  53 H53           -4.6294    -5.3029     2.8787 H       
  54 H54           -5.3469    -5.3595     1.2507 H       
  55 H55           -6.9130    -6.2691    -1.1579 H       
  56 H56           -7.0165    -4.6837    -1.9661 H       
  57 H57           -6.9126    -6.6131    -3.5844 H       
  58 H58           -5.5656    -5.4649    -3.7775 H       
  59 H59           -5.4550    -8.0690    -2.1884 H       
  60 H60           -4.7697    -7.8235    -3.8124 H       
  61 H61           -3.0194    -7.5685    -2.0860 H       
  62 H62           -3.3125    -6.0178    -2.9104 H       
  63 H63           -3.1953    -5.6183    -0.5052 H       
  64 H64           -4.4189    -6.8790    -0.2043 H       
  65 H65           -2.4644    -2.3471     2.2110 H       
  66 H66           -2.9402    -3.5457     3.4379 H       
  67 H67           -1.9563    -4.0446     2.0410 H       
  68 H68           -6.0627    -2.9756     1.4930 H       
  69 H69           -5.3382    -2.9214     3.1179 H       
  70 H70           -4.8624    -1.7229     1.8910 H       
@<TRIPOS>BOND
   1    1    2 1
   2    1    7 1
   3    1    8 1
   4    2    3 1
   5    2   10 2
   6    3    4 1
   7    3   37 1
   8    3   38 1
   9    4    5 1
  10    4   23 1
  11    5    6 1
  12    5   39 1
  13    5   40 1
  14    6    7 1
  15    6   41 1
  16    6   42 1
  17    7   43 1
  18    7   44 1
  19    8    9 2
  20    8   14 1
  21    9   10 1
  22   10   11 1
  23   11   12 2
  24   11   13 am
  25   13   25 1
  26   13   45 1
  27   14   15 ar
  28   14   19 ar
  29   15   16 ar
  30   15   22 1
  31   16   17 ar
  32   16   46 1
  33   17   18 ar
  34   17   21 1
  35   18   19 ar
  36   18   20 1
  37   19   47 1
  38   23   48 1
  39   23   49 1
  40   23   50 1
  41   24   28 am
  42   24   34 2
  43   24   25 1
  44   25   26 1
  45   25   51 1
  46   26   27 1
  47   26   35 1
  48   26   36 1
  49   27   52 1
  50   27   53 1
  51   27   54 1
  52   28   29 1
  53   28   33 1
  54   29   30 1
  55   29   55 1
  56   29   56 1
  57   30   31 1
  58   30   57 1
  59   30   58 1
  60   31   32 1
  61   31   59 1
  62   31   60 1
  63   32   33 1
  64   32   61 1
  65   32   62 1
  66   33   63 1
  67   33   64 1
  68   35   65 1
  69   35   66 1
  70   35   67 1
  71   36   68 1
  72   36   69 1
  73   36   70 1

#	End of record

