#	Name: ASD01411238
#	Creating user name:	WinNT
#	Creation time:	15. 06. 2019 19:19

#	Modifying user name:	WinNT
#	Modification time:	15. 06. 2019 19:19

#	Program:	/corina/corina34_cracker 3.40 0067  02.08.2006

@<TRIPOS>MOLECULE
ASD01411238
  62   64    0    0    0
SMALL
NO_CHARGES


@<TRIPOS>ATOM
   1 C1            -0.5536     2.3609    -0.5026 C.ar    
   2 C2            -0.4450     1.0314    -0.8928 C.ar    
   3 C3            -1.5119     0.1696    -0.7381 C.ar    
   4 C4            -2.7028     0.6261    -0.1907 C.ar    
   5 C5            -2.8188     1.9672     0.2057 C.ar    
   6 C6            -1.7315     2.8302     0.0498 C.ar    
   7 O7             0.5034     3.2015    -0.6594 O.3     
   8 C8             1.1369     3.6419     0.4550 C.2     
   9 N9            -3.7804    -0.2447    -0.0356 N.am    
  10 C10           -3.9897    -0.8536     1.1484 C.2     
  11 C11           -3.1311    -0.5055     2.3370 C.3     
  12 O12           -4.8691    -1.6817     1.2573 O.2     
  13 C13           -3.8883    -0.8311     3.6260 C.3     
  14 C14           -1.8364    -1.3191     2.2866 C.3     
  15 C15           -0.9647    -0.9656     3.4933 C.3     
  16 C16           -1.7219    -1.2912     4.7823 C.3     
  17 C17           -3.0167    -0.4776     4.8327 C.3     
  18 C18           -0.8502    -0.9377     5.9890 C.3     
  19 N19            0.8743     3.2501     1.6614 N.2     
  20 C20           -4.6852    -0.4980    -1.1596 C.3     
  21 C21           -4.5836     0.6509    -2.1650 C.3     
  22 C22           -4.2946    -1.8099    -1.8432 C.3     
  23 O23           -4.4786    -2.8950    -0.9319 O.3     
  24 C24           -4.1405    -4.1732    -1.4742 C.3     
  25 O25           -5.0772     1.8516    -1.5677 O.3     
  26 C26           -5.0267     2.9918    -2.4275 C.3     
  27 S27            2.4037     4.7899     0.4722 S.3     
  28 C28            2.5038     4.6687     2.2269 C.2     
  29 C29            1.5911     3.7847     2.6330 C.2     
  30 C30           -4.0795     2.4613     0.7881 C.2     
  31 O31           -5.0503     1.7325     0.8426 O.2     
  32 O32           -4.1554     3.7212     1.2601 O.3     
  33 H33            0.4791     0.6707    -1.3197 H       
  34 H34           -1.4200    -0.8621    -1.0440 H       
  35 H35           -1.8132     3.8637     0.3526 H       
  36 H36           -2.8931     0.5580     2.3142 H       
  37 H37           -4.8107    -0.2515     3.6618 H       
  38 H38           -4.1264    -1.8945     3.6487 H       
  39 H39           -2.0744    -2.3825     2.3094 H       
  40 H40           -1.2969    -1.0871     1.3683 H       
  41 H41           -0.0423    -1.5452     3.4575 H       
  42 H42           -0.7267     0.0979     3.4706 H       
  43 H43           -1.9599    -2.3547     4.8051 H       
  44 H44           -2.7786     0.5858     4.8099 H       
  45 H45           -3.5561    -0.7096     5.7510 H       
  46 H46           -0.6122     0.1257     5.9663 H       
  47 H47           -1.3897    -1.1697     6.9073 H       
  48 H48            0.0722    -1.5174     5.9532 H       
  49 H49           -5.7090    -0.5702    -0.7927 H       
  50 H50           -3.5417     0.7903    -2.4534 H       
  51 H51           -5.1766     0.4141    -3.0484 H       
  52 H52           -4.9217    -1.9627    -2.7215 H       
  53 H53           -3.2488    -1.7639    -2.1470 H       
  54 H54           -3.0916    -4.1763    -1.7703 H       
  55 H55           -4.3077    -4.9432    -0.7210 H       
  56 H56           -4.7645    -4.3750    -2.3448 H       
  57 H57           -5.4186     3.8618    -1.9006 H       
  58 H58           -3.9940     3.1798    -2.7213 H       
  59 H59           -5.6288     2.8037    -3.3163 H       
  60 H60            3.1872     5.2123     2.8623 H       
  61 H61            1.4483     3.5289     3.6725 H       
  62 H62           -5.0030     4.0000     1.6327 H       
@<TRIPOS>BOND
   1    1    2 ar
   2    1    7 1
   3    1    6 ar
   4    2    3 ar
   5    2   33 1
   6    3    4 ar
   7    3   34 1
   8    4    5 ar
   9    4    9 1
  10    5    6 ar
  11    5   30 1
  12    6   35 1
  13    7    8 1
  14    8   27 1
  15    8   19 2
  16    9   10 am
  17    9   20 1
  18   10   11 1
  19   10   12 2
  20   11   13 1
  21   11   14 1
  22   11   36 1
  23   13   17 1
  24   13   37 1
  25   13   38 1
  26   14   15 1
  27   14   39 1
  28   14   40 1
  29   15   16 1
  30   15   41 1
  31   15   42 1
  32   16   17 1
  33   16   18 1
  34   16   43 1
  35   17   44 1
  36   17   45 1
  37   18   46 1
  38   18   47 1
  39   18   48 1
  40   19   29 1
  41   20   21 1
  42   20   22 1
  43   20   49 1
  44   21   25 1
  45   21   50 1
  46   21   51 1
  47   22   23 1
  48   22   52 1
  49   22   53 1
  50   23   24 1
  51   24   54 1
  52   24   55 1
  53   24   56 1
  54   25   26 1
  55   26   57 1
  56   26   58 1
  57   26   59 1
  58   27   28 1
  59   28   29 2
  60   28   60 1
  61   29   61 1
  62   30   31 2
  63   30   32 1
  64   32   62 1

#	End of record

