#	Name: ASD01140001
#	Creating user name:	WinNT
#	Creation time:	15. 06. 2019 18:59

#	Modifying user name:	WinNT
#	Modification time:	15. 06. 2019 18:59

#	Program:	/corina/corina34_cracker 3.40 0067  02.08.2006

@<TRIPOS>MOLECULE
ASD01140001
  53   56    0    0    0
SMALL
NO_CHARGES


@<TRIPOS>ATOM
   1 O1            -0.0186     1.5178     0.0104 O.3     
   2 S2             0.0021    -0.0041     0.0020 S.o2    
   3 O3            -1.3423    -0.4225    -0.1898 O.2     
   4 O4             1.0655    -0.3862    -0.8596 O.2     
   5 O5             0.3978    -0.4570     1.4001 O.3     
   6 C6             2.6446     4.0042    -0.9095 C.3     
   7 C7             1.2388     3.4075    -0.8187 C.3     
   8 C8             1.2788     2.1167     0.0012 C.3     
   9 C9             1.7032     2.4375     1.4373 C.3     
  10 C10            3.0280     3.1803     1.3922 C.2     
  11 C11            4.0032     2.7464     2.1360 C.2     
  12 C12            5.3573     3.3929     2.1683 C.3     
  13 C13            5.2201     4.8725     1.7922 C.3     
  14 C14            6.6009     5.4894     1.6532 C.3     
  15 C15            7.4135     5.5925     2.9501 C.3     
  16 C16            8.4005     6.7503     2.6376 C.3     
  17 C17            7.7554     7.5886     1.5385 C.2     
  18 C18            6.4007     6.9884     1.3035 C.3     
  19 C19            5.8610     7.0493    -0.1121 C.3     
  20 C20            4.4728     6.3906    -0.0961 C.3     
  21 C21            4.5335     4.9565     0.4222 C.3     
  22 C22            3.1305     4.3770     0.4940 C.3     
  23 O23            8.2369     8.5408     0.9730 O.2     
  24 C24            5.3866     7.6113     2.2650 C.3     
  25 C25            2.2069     5.4661     1.0433 C.3     
  26 H26            4.6450     5.4027     2.5513 H       
  27 H27            5.1066     4.3590    -0.2868 H       
  28 H28            7.1737     4.9725     0.8833 H       
  29 H29            0.4414    -1.4173     1.5049 H       
  30 H30            3.3231     3.2714    -1.3464 H       
  31 H31            2.6211     4.8965    -1.5350 H       
  32 H32            0.5717     4.1225    -0.3372 H       
  33 H33            0.8722     3.1888    -1.8216 H       
  34 H34            1.9949     1.4257    -0.4436 H       
  35 H35            0.9476     3.0634     1.9122 H       
  36 H36            1.8206     1.5118     2.0008 H       
  37 H37            3.8303     1.8814     2.7592 H       
  38 H38            5.7766     3.3096     3.1710 H       
  39 H39            6.0152     2.8957     1.4555 H       
  40 H40            6.7695     5.8493     3.7911 H       
  41 H41            7.9532     4.6654     3.1435 H       
  42 H42            8.5562     7.3588     3.5284 H       
  43 H43            9.3514     6.3467     2.2898 H       
  44 H44            5.7757     8.0876    -0.4327 H       
  45 H45            6.5227     6.5048    -0.7856 H       
  46 H46            3.8107     6.9725     0.5452 H       
  47 H47            4.0701     6.3857    -1.1090 H       
  48 H48            5.7547     7.5248     3.2873 H       
  49 H49            5.2489     8.6636     2.0162 H       
  50 H50            4.4339     7.0893     2.1764 H       
  51 H51            1.1855     5.0880     1.0876 H       
  52 H52            2.5335     5.7487     2.0441 H       
  53 H53            2.2437     6.3374     0.3895 H       
@<TRIPOS>BOND
   1    1    2 1
   2    1    8 1
   3    2    3 2
   4    2    4 2
   5    2    5 1
   6    5   29 1
   7    6    7 1
   8    6   22 1
   9    6   30 1
  10    6   31 1
  11    7    8 1
  12    7   32 1
  13    7   33 1
  14    8    9 1
  15    8   34 1
  16    9   10 1
  17    9   35 1
  18    9   36 1
  19   10   11 2
  20   10   22 1
  21   11   12 1
  22   11   37 1
  23   12   13 1
  24   12   38 1
  25   12   39 1
  26   13   14 1
  27   13   26 1
  28   13   21 1
  29   14   15 1
  30   14   18 1
  31   14   28 1
  32   15   16 1
  33   15   40 1
  34   15   41 1
  35   16   17 1
  36   16   42 1
  37   16   43 1
  38   17   18 1
  39   17   23 2
  40   18   19 1
  41   18   24 1
  42   19   20 1
  43   19   44 1
  44   19   45 1
  45   20   21 1
  46   20   46 1
  47   20   47 1
  48   21   27 1
  49   21   22 1
  50   22   25 1
  51   24   48 1
  52   24   49 1
  53   24   50 1
  54   25   51 1
  55   25   52 1
  56   25   53 1

#	End of record

