#	Name: ASD03092910
#	Creating user name:	WinNT
#	Creation time:	15. 06. 2019 20:33

#	Modifying user name:	WinNT
#	Modification time:	15. 06. 2019 20:33

#	Program:	/corina/corina34_cracker 3.40 0067  02.08.2006

@<TRIPOS>MOLECULE
ASD03092910
  56   60    0    0    0
SMALL
NO_CHARGES


@<TRIPOS>ATOM
   1 H1             0.0733     0.2557    -0.4699 H       
   2 C2             0.0662     1.3286    -0.2776 C.3     
   3 C3            -0.5936     2.0587    -1.4510 C.3     
   4 C4            -0.6532     3.5584    -1.1360 C.3     
   5 H5            -1.6911     3.8688    -1.0158 H       
   6 C6            -0.0043     4.3518    -2.2720 C.3     
   7 C7            -0.8266     4.1773    -3.5504 C.3     
   8 C8             0.1170     3.7991     0.1741 C.3     
   9 H9             0.1610     4.8710     0.3671 H       
  10 N10            1.4638     3.3078     0.0152 N.3     
  11 C11            1.5047     1.8304    -0.0945 C.3     
  12 C12            2.4465     3.8805     0.8933 C.3     
  13 C13            2.6153     3.1263     2.1887 C.3     
  14 C14            1.3445     3.2071     3.0122 C.2     
  15 C15            0.0724     3.2294     2.6573 C.2     
  16 N16           -0.7217     3.3460     3.7996 N.pl3   
  17 H17           -1.6900     3.4031     3.7976 H       
  18 C18            0.0544     3.3681     4.9146 C.ar    
  19 C19           -0.2444     3.4521     6.2737 C.ar    
  20 C20            0.8249     3.4488     7.1526 C.ar    
  21 C21            2.1426     3.3663     6.7202 C.ar    
  22 O22            3.1431     3.3688     7.6413 O.3     
  23 C23            2.4649     3.2808     5.3721 C.ar    
  24 C24            1.3938     3.2824     4.4758 C.ar    
  25 C25           -0.6066     3.1224     1.3184 C.3     
  26 C26           -0.7230     1.6185     1.0062 C.3     
  27 C27           -1.9933     3.7022     1.4283 C.2     
  28 O28           -2.9563     2.9727     1.4112 O.2     
  29 O29           -2.1585     5.0291     1.5453 O.3     
  30 C30           -3.5223     5.5172     1.6466 C.3     
  31 C31           -3.5102     7.0420     1.7720 C.3     
  32 O32           -2.9921     7.6147     0.5697 O.3     
  33 H33           -0.0074     1.8990    -2.3560 H       
  34 H34           -1.6038     1.6762    -1.5970 H       
  35 H35            0.0308     5.4077    -2.0039 H       
  36 H36            1.0086     3.9854    -2.4387 H       
  37 H37           -0.3644     4.7425    -4.3597 H       
  38 H38           -0.8617     3.1214    -3.8186 H       
  39 H39           -1.8396     4.5437    -3.3837 H       
  40 H40            1.9279     1.4029     0.8144 H       
  41 H41            2.1066     1.5356    -0.9541 H       
  42 H42            3.4055     3.9027     0.3756 H       
  43 H43            2.1539     4.9052     1.1224 H       
  44 H44            2.8392     2.0819     1.9718 H       
  45 H45            3.4401     3.5601     2.7541 H       
  46 H46           -1.2636     3.5171     6.6248 H       
  47 H47            0.6278     3.5130     8.2125 H       
  48 H48            3.3923     2.4882     7.9536 H       
  49 H49            3.4889     3.2169     5.0349 H       
  50 H50           -1.7730     1.3668     0.8569 H       
  51 H51           -0.3167     1.0293     1.8283 H       
  52 H52           -4.0781     5.2304     0.7539 H       
  53 H53           -3.9987     5.0841     2.5261 H       
  54 H54           -4.5261     7.4010     1.9371 H       
  55 H55           -2.8810     7.3325     2.6133 H       
  56 H56           -2.9554     8.5810     0.5783 H       
@<TRIPOS>BOND
   1    1    2 1
   2    2   11 1
   3    2   26 1
   4    2    3 1
   5    3    4 1
   6    3   33 1
   7    3   34 1
   8    4    5 1
   9    4    6 1
  10    4    8 1
  11    6    7 1
  12    6   35 1
  13    6   36 1
  14    7   37 1
  15    7   38 1
  16    7   39 1
  17    8   25 1
  18    8    9 1
  19    8   10 1
  20   10   11 1
  21   10   12 1
  22   11   40 1
  23   11   41 1
  24   12   13 1
  25   12   42 1
  26   12   43 1
  27   13   14 1
  28   13   44 1
  29   13   45 1
  30   14   24 1
  31   14   15 2
  32   15   16 1
  33   15   25 1
  34   16   17 1
  35   16   18 1
  36   18   24 ar
  37   18   19 ar
  38   19   20 ar
  39   19   46 1
  40   20   21 ar
  41   20   47 1
  42   21   22 1
  43   21   23 ar
  44   22   48 1
  45   23   24 ar
  46   23   49 1
  47   25   26 1
  48   25   27 1
  49   26   50 1
  50   26   51 1
  51   27   28 2
  52   27   29 1
  53   29   30 1
  54   30   31 1
  55   30   52 1
  56   30   53 1
  57   31   32 1
  58   31   54 1
  59   31   55 1
  60   32   56 1

#	End of record

