#	Name: ASD01940684
#	Creating user name:	WinNT
#	Creation time:	15. 06. 2019 20:13

#	Modifying user name:	WinNT
#	Modification time:	15. 06. 2019 20:13

#	Program:	/corina/corina34_cracker 3.40 0067  02.08.2006

@<TRIPOS>MOLECULE
ASD01940684
  40   42    0    0    0
SMALL
NO_CHARGES


@<TRIPOS>ATOM
   1 C1             0.3261     0.9819     1.1553 C.ar    
   2 C2            -0.1488     0.2378     0.0909 C.ar    
   3 C3             0.6515     0.0189    -1.0174 C.ar    
   4 C4             1.9329     0.5444    -1.0648 C.ar    
   5 C5             2.4151     1.2924     0.0012 C.ar    
   6 C6             1.6071     1.5117     1.1157 C.ar    
   7 N7             2.0884     2.2662     2.1941 N.am    
   8 S8             1.6700     1.8568     3.7432 S.o2    
   9 C9             2.2838     0.1617     3.9449 C.3     
  10 O10            2.4120     2.7558     4.5558 O.2     
  11 O11            0.2491     1.8754     3.7390 O.2     
  12 F12            0.1825    -0.7088    -2.0545 F       
  13 F13            2.7124     0.3288    -2.1469 F       
  14 N14            3.7107     1.8249    -0.0433 N.pl3   
  15 C15            4.8078     1.0282     0.3079 C.ar    
  16 C16            6.0781     1.5894     0.3894 C.ar    
  17 C17            4.6277    -0.3206     0.5803 C.ar    
  18 C18            5.7104    -1.1062     0.9266 C.ar    
  19 C19            6.9775    -0.5481     1.0023 C.ar    
  20 C20            7.1595     0.8014     0.7361 C.ar    
  21 F21            6.2546     2.9034     0.1296 F       
  22 C22            1.9489    -0.5601     5.2516 C.3     
  23 C23            1.2513    -0.9673     3.9522 C.3     
  24 O24            8.0419    -1.3228     1.3434 O.3     
  25 C25            9.3181    -0.6825     1.4022 C.3     
  26 H26           -0.3027     1.1542     2.0163 H       
  27 H27           -1.1466    -0.1740     0.1244 H       
  28 H28            2.6665     3.0282     2.0332 H       
  29 H29            3.2526    -0.0447     3.4899 H       
  30 H30            3.8476     2.7453    -0.3172 H       
  31 H31            3.6411    -0.7563     0.5220 H       
  32 H32            5.5696    -2.1557     1.1389 H       
  33 H33            8.1468     1.2352     0.7953 H       
  34 H34            2.6971    -1.2417     5.6562 H       
  35 H35            1.3597    -0.0165     5.9902 H       
  36 H36            0.2032    -0.6916     3.8359 H       
  37 H37            1.5406    -1.9168     3.5019 H       
  38 H38            9.5606    -0.2653     0.4248 H       
  39 H39            9.2893     0.1177     2.1418 H       
  40 H40           10.0776    -1.4114     1.6848 H       
@<TRIPOS>BOND
   1    1    2 ar
   2    1    6 ar
   3    1   26 1
   4    2    3 ar
   5    2   27 1
   6    3    4 ar
   7    3   12 1
   8    4    5 ar
   9    4   13 1
  10    5    6 ar
  11    5   14 1
  12    6    7 1
  13    7    8 am
  14    7   28 1
  15    8    9 1
  16    8   10 2
  17    8   11 2
  18    9   22 1
  19    9   23 1
  20    9   29 1
  21   14   15 1
  22   14   30 1
  23   15   16 ar
  24   15   17 ar
  25   16   21 1
  26   16   20 ar
  27   17   18 ar
  28   17   31 1
  29   18   19 ar
  30   18   32 1
  31   19   20 ar
  32   19   24 1
  33   20   33 1
  34   22   23 1
  35   22   34 1
  36   22   35 1
  37   23   36 1
  38   23   37 1
  39   24   25 1
  40   25   38 1
  41   25   39 1
  42   25   40 1

#	End of record

