#	Name: ASD01812889
#	Creating user name:	WinNT
#	Creation time:	15. 06. 2019 19:29

#	Modifying user name:	WinNT
#	Modification time:	15. 06. 2019 19:29

#	Program:	/corina/corina34_cracker 3.40 0067  02.08.2006

@<TRIPOS>MOLECULE
ASD01812889
  60   64    0    0    0
SMALL
NO_CHARGES


@<TRIPOS>ATOM
   1 N1             0.0027     1.3184    -0.2224 N.ar    
   2 C2             0.0319     0.0058    -0.3460 C.ar    
   3 C3             1.2340    -0.6843    -0.3682 C.ar    
   4 C4             2.4113     0.0205    -0.2593 C.ar    
   5 C5             2.3614     1.4132    -0.1292 C.ar    
   6 C6             1.1073     2.0395    -0.1145 C.ar    
   7 C7             3.8682    -0.3581    -0.2428 C.3     
   8 N8             4.6151     0.8975    -0.0972 N.am    
   9 C9             3.7395     1.9163    -0.0322 C.2     
  10 C10            6.0736     1.0204    -0.0337 C.3     
  11 C11            6.6239     1.1966    -1.4255 C.ar    
  12 O12            1.0259     3.3855     0.0100 O.3     
  13 O13            4.0442     3.0870     0.0899 O.2     
  14 C14            6.7706     2.4669    -1.9528 C.ar    
  15 C15            7.2741     2.6341    -3.2270 C.ar    
  16 C16            7.6349     1.5203    -3.9823 C.ar    
  17 C17            7.4851     0.2431    -3.4462 C.ar    
  18 C18            6.9859     0.0877    -2.1689 C.ar    
  19 C19           -0.2021     3.9617    -0.0802 C.ar    
  20 C20           -1.0087     4.0614     1.0465 C.ar    
  21 C21           -2.2577     4.6483     0.9509 C.ar    
  22 C22           -2.7025     5.1344    -0.2646 C.ar    
  23 C23           -1.9011     5.0354    -1.3870 C.ar    
  24 C24           -0.6499     4.4562    -1.2961 C.ar    
  25 F25           -0.5740     3.5855     2.2339 F       
  26 C26           -4.0638     5.7728    -0.3664 C.3     
  27 C27           -4.0483     6.8338    -1.4687 C.3     
  28 C28           -5.1049     4.7033    -0.7026 C.3     
  29 O29           -4.3967     6.3864     0.8805 O.3     
  30 C30            8.1765     1.6938    -5.3532 C.2     
  31 N31            8.3710     2.8404    -5.9696 N.2     
  32 C32            8.5788     0.6609    -6.2221 C.2     
  33 C33            9.0105     1.2292    -7.3691 C.2     
  34 N34            8.8934     2.5684    -7.2405 N.pl3   
  35 C35            9.2539     3.5640    -8.2529 C.3     
  36 H36           -0.8959    -0.5406    -0.4310 H       
  37 H37            1.2466    -1.7595    -0.4692 H       
  38 H38            4.0747    -1.0171     0.6004 H       
  39 H39            4.1385    -0.8488    -1.1778 H       
  40 H40            6.3392     1.8853     0.5742 H       
  41 H41            6.4951     0.1196     0.4123 H       
  42 H42            6.4902     3.3296    -1.3666 H       
  43 H43            7.3879     3.6263    -3.6379 H       
  44 H44            7.7629    -0.6237    -4.0276 H       
  45 H45            6.8734    -0.9016    -1.7507 H       
  46 H46           -2.8858     4.7265     1.8260 H       
  47 H47           -2.2518     5.4154    -2.3351 H       
  48 H48           -0.0231     4.3839    -2.1726 H       
  49 H49           -3.7944     6.3658    -2.4199 H       
  50 H50           -5.0329     7.2956    -1.5424 H       
  51 H51           -3.3066     7.5957    -1.2292 H       
  52 H52           -5.1159     3.9475     0.0827 H       
  53 H53           -6.0895     5.1651    -0.7763 H       
  54 H54           -4.8510     4.2353    -1.6537 H       
  55 H55           -3.7779     7.0761     1.1570 H       
  56 H56            8.5479    -0.3974    -6.0092 H       
  57 H57            9.3856     0.7049    -8.2355 H       
  58 H58           10.2963     3.8544    -8.1220 H       
  59 H59            9.1176     3.1374    -9.2467 H       
  60 H60            8.6158     4.4409    -8.1434 H       
@<TRIPOS>BOND
   1    1    2 ar
   2    1    6 ar
   3    2    3 ar
   4    2   36 1
   5    3    4 ar
   6    3   37 1
   7    4    7 1
   8    4    5 ar
   9    5    6 ar
  10    5    9 1
  11    6   12 1
  12    7    8 1
  13    7   38 1
  14    7   39 1
  15    8    9 am
  16    8   10 1
  17    9   13 2
  18   10   11 1
  19   10   40 1
  20   10   41 1
  21   11   14 ar
  22   11   18 ar
  23   12   19 1
  24   14   15 ar
  25   14   42 1
  26   15   16 ar
  27   15   43 1
  28   16   17 ar
  29   16   30 1
  30   17   18 ar
  31   17   44 1
  32   18   45 1
  33   19   20 ar
  34   19   24 ar
  35   20   21 ar
  36   20   25 1
  37   21   22 ar
  38   21   46 1
  39   22   23 ar
  40   22   26 1
  41   23   24 ar
  42   23   47 1
  43   24   48 1
  44   26   27 1
  45   26   28 1
  46   26   29 1
  47   27   49 1
  48   27   50 1
  49   27   51 1
  50   28   52 1
  51   28   53 1
  52   28   54 1
  53   29   55 1
  54   30   32 1
  55   30   31 2
  56   31   34 1
  57   32   33 2
  58   32   56 1
  59   33   34 1
  60   33   57 1
  61   34   35 1
  62   35   58 1
  63   35   59 1
  64   35   60 1

#	End of record

