#	Name: ASD01900465
#	Creating user name:	WinNT
#	Creation time:	15. 06. 2019 19:52

#	Modifying user name:	WinNT
#	Modification time:	15. 06. 2019 19:52

#	Program:	/corina/corina34_cracker 3.40 0067  02.08.2006

@<TRIPOS>MOLECULE
ASD01900465
  36   39    0    0    0
SMALL
NO_CHARGES


@<TRIPOS>ATOM
   1 C1             0.3966     3.4563     0.6392 C.ar    
   2 C2             0.8957     4.3388     1.6162 C.ar    
   3 C3             2.2754     4.4884     1.7519 C.ar    
   4 C4             3.0971     3.7586     0.9156 C.ar    
   5 C5             2.5358     2.9062    -0.0263 C.ar    
   6 N6             1.2336     2.7770    -0.1414 N.ar    
   7 N7            -1.3585     4.3639     1.6952 N.2     
   8 N8            -0.1868     4.8857     2.2531 N.pl3   
   9 C9            -1.0632     3.5232     0.7395 C.2     
  10 N10           -1.9768     2.8098    -0.0425 N.pl3   
  11 C11           -3.3486     3.0504     0.0900 C.ar    
  12 C12           -3.8047     4.3296     0.3822 C.ar    
  13 C13           -5.1595     4.5663     0.5123 C.ar    
  14 C14           -6.0647     3.5256     0.3509 C.ar    
  15 C15           -5.6094     2.2486     0.0592 C.ar    
  16 C16           -4.2553     2.0117    -0.0763 C.ar    
  17 O17           -7.3984     3.7588     0.4795 O.3     
  18 C18           -8.0741     4.2096    -0.6076 C.ar    
  19 C19           -9.4338     4.4881    -0.5077 C.ar    
  20 C20          -10.1106     4.9477    -1.6257 C.ar    
  21 C21           -9.4009     5.1128    -2.8075 C.ar    
  22 C22           -8.0530     4.8166    -2.8333 C.ar    
  23 N23           -7.4332     4.3854    -1.7508 N.ar    
  24 F24          -10.0848     4.3123     0.6629 F       
  25 Cl25          -5.7304     6.1644     0.8780 Cl      
  26 H26            2.6904     5.1574     2.4912 H       
  27 H27            4.1704     3.8506     0.9933 H       
  28 H28            3.1832     2.3383    -0.6779 H       
  29 H29           -0.1472     5.5315     2.9758 H       
  30 H30           -1.6595     2.1480    -0.6767 H       
  31 H31           -3.1004     5.1387     0.5080 H       
  32 H32           -6.3140     1.4398    -0.0657 H       
  33 H33           -3.9015     1.0178    -0.3076 H       
  34 H34          -11.1660     5.1720    -1.5791 H       
  35 H35           -9.8984     5.4690    -3.6975 H       
  36 H36           -7.4972     4.9433    -3.7506 H       
@<TRIPOS>BOND
   1    1    2 ar
   2    1    6 ar
   3    1    9 1
   4    2    3 ar
   5    2    8 1
   6    3    4 ar
   7    3   26 1
   8    4    5 ar
   9    4   27 1
  10    5    6 ar
  11    5   28 1
  12    7    8 1
  13    7    9 2
  14    8   29 1
  15    9   10 1
  16   10   11 1
  17   10   30 1
  18   11   12 ar
  19   11   16 ar
  20   12   13 ar
  21   12   31 1
  22   13   14 ar
  23   13   25 1
  24   14   15 ar
  25   14   17 1
  26   15   16 ar
  27   15   32 1
  28   16   33 1
  29   17   18 1
  30   18   19 ar
  31   18   23 ar
  32   19   20 ar
  33   19   24 1
  34   20   21 ar
  35   20   34 1
  36   21   22 ar
  37   21   35 1
  38   22   23 ar
  39   22   36 1

#	End of record

