#	Name: ASD02408055
#	Creating user name:	WinNT
#	Creation time:	15. 06. 2019 20:21

#	Modifying user name:	WinNT
#	Modification time:	15. 06. 2019 20:21

#	Program:	/corina/corina34_cracker 3.40 0067  02.08.2006

@<TRIPOS>MOLECULE
ASD02408055
  60   63    0    0    0
SMALL
NO_CHARGES


@<TRIPOS>ATOM
   1 C1            -0.4433     2.3228     0.0444 C.ar    
   2 C2            -0.6916     0.9948    -0.2368 C.ar    
   3 C3             0.9733     2.8038     0.2266 C.3     
   4 C4             1.2769     2.9260     1.6976 C.2     
   5 N5             2.4998     3.3442     2.0775 N.am    
   6 N6             0.3445     2.6283     2.5612 N.2     
   7 C7             0.5573     2.7186     3.8803 C.2     
   8 C8             1.8125     3.1434     4.3463 C.2     
   9 C9             2.8060     3.4656     3.3863 C.2     
  10 N10           -0.4410     2.3997     4.7678 N.pl3   
  11 C11           -1.2978     1.2278     4.5414 C.3     
  12 O12            3.9123     3.8394     3.7357 O.2     
  13 C13           -2.7632     1.6720     4.5878 C.3     
  14 C14           -3.0298     2.4001     5.9072 C.3     
  15 C15           -2.1446     3.6456     5.9925 C.3     
  16 C16           -0.6686     3.2205     5.9650 C.3     
  17 C17           -4.5011     2.8149     5.9722 C.3     
  18 C18           -1.9915     0.5520    -0.4043 C.ar    
  19 C19           -3.0488     1.4363    -0.2911 C.ar    
  20 C20           -2.8120     2.7669    -0.0102 C.ar    
  21 C21           -1.5045     3.2195     0.1538 C.ar    
  22 C22           -1.2437     4.6485     0.4564 C.ar    
  23 C23           -0.4138     5.4094    -0.3736 C.ar    
  24 C24           -0.2006     6.7361    -0.0511 C.ar    
  25 C25           -0.8125     7.2669     1.0780 C.ar    
  26 N26           -1.5920     6.5199     1.8430 N.ar    
  27 C27           -1.8261     5.2527     1.5672 C.ar    
  28 O28           -0.6077     8.5686     1.4006 O.3     
  29 C29           -1.2632     9.0575     2.5724 C.3     
  30 C30           -4.7973     3.4310     7.3410 C.3     
  31 O31           -6.1714     3.8185     7.4016 O.3     
  32 C32            2.0796     3.2531     5.7489 C.1     
  33 N33            2.2915     3.3400     6.8615 N.1     
  34 H34            0.1303     0.3000    -0.3266 H       
  35 H35            1.6605     2.0904    -0.2282 H       
  36 H36            1.0909     3.7766    -0.2507 H       
  37 H37            3.1654     3.5594     1.4054 H       
  38 H38           -1.0773     0.7972     3.5647 H       
  39 H39           -1.1159     0.4864     5.3194 H       
  40 H40           -2.9662     2.3441     3.7540 H       
  41 H41           -3.4107     0.7980     4.5172 H       
  42 H42           -2.8030     1.7356     6.7409 H       
  43 H43           -2.3535     4.2990     5.1455 H       
  44 H44           -2.3519     4.1763     6.9218 H       
  45 H45           -0.4380     2.6427     6.8600 H       
  46 H46           -0.0341     4.1059     5.9256 H       
  47 H47           -4.7068     3.5476     5.1918 H       
  48 H48           -5.1325     1.9390     5.8237 H       
  49 H49           -2.1813    -0.4882    -0.6245 H       
  50 H50           -4.0616     1.0853    -0.4232 H       
  51 H51           -3.6384     3.4566     0.0780 H       
  52 H52            0.0493     4.9706    -1.2451 H       
  53 H53            0.4346     7.3532    -0.6693 H       
  54 H54           -2.4680     4.6743     2.2152 H       
  55 H55           -2.3418     8.9507     2.4566 H       
  56 H56           -0.9325     8.4854     3.4392 H       
  57 H57           -1.0155    10.1093     2.7152 H       
  58 H58           -4.5916     2.6984     8.1214 H       
  59 H59           -4.1659     4.3070     7.4895 H       
  60 H60           -6.4307     4.2178     8.2433 H       
@<TRIPOS>BOND
   1    1    2 ar
   2    1    3 1
   3    1   21 ar
   4    2   18 ar
   5    2   34 1
   6    3    4 1
   7    3   35 1
   8    3   36 1
   9    4    5 1
  10    4    6 2
  11    5    9 am
  12    5   37 1
  13    6    7 1
  14    7    8 2
  15    7   10 1
  16    8    9 1
  17    8   32 1
  18    9   12 2
  19   10   11 1
  20   10   16 1
  21   11   13 1
  22   11   38 1
  23   11   39 1
  24   13   14 1
  25   13   40 1
  26   13   41 1
  27   14   15 1
  28   14   17 1
  29   14   42 1
  30   15   16 1
  31   15   43 1
  32   15   44 1
  33   16   45 1
  34   16   46 1
  35   17   30 1
  36   17   47 1
  37   17   48 1
  38   18   19 ar
  39   18   49 1
  40   19   20 ar
  41   19   50 1
  42   20   21 ar
  43   20   51 1
  44   21   22 1
  45   22   23 ar
  46   22   27 ar
  47   23   24 ar
  48   23   52 1
  49   24   25 ar
  50   24   53 1
  51   25   26 ar
  52   25   28 1
  53   26   27 ar
  54   27   54 1
  55   28   29 1
  56   29   55 1
  57   29   56 1
  58   29   57 1
  59   30   31 1
  60   30   58 1
  61   30   59 1
  62   31   60 1
  63   32   33 3

#	End of record

