#	Name: ASD02198096
#	Creating user name:	WinNT
#	Creation time:	15. 06. 2019 20:18

#	Modifying user name:	WinNT
#	Modification time:	15. 06. 2019 20:18

#	Program:	/corina/corina34_cracker 3.40 0067  02.08.2006

@<TRIPOS>MOLECULE
ASD02198096
  45   47    0    0    0
SMALL
NO_CHARGES


@<TRIPOS>ATOM
   1 C1            -0.0210     1.3616    -0.2532 C.2     
   2 C2             0.0018    -0.0165    -0.2055 C.2     
   3 C3            -1.1842    -0.8183    -0.2366 C.1     
   4 S4             1.5595     1.9984    -0.1971 S.3     
   5 C5             2.2728     0.3960    -0.1080 C.2     
   6 C6             1.2827    -0.5582    -0.1243 C.2     
   7 C7             3.6525     0.1283    -0.0317 C.2     
   8 C8             4.6286     1.2349    -0.1472 C.ar    
   9 O9             4.0436    -1.0153     0.1296 O.2     
  10 N10            1.5335    -1.9199    -0.0656 N.pl3   
  11 N11           -1.1646     2.1200    -0.3402 N.pl3   
  12 N12           -2.1251    -1.4544    -0.2612 N.1     
  13 C13            4.8980     1.8043    -1.3921 C.ar    
  14 C14           -1.0728     3.5815    -0.3845 C.3     
  15 C15           -2.3127     4.1666    -1.0831 C.3     
  16 C16            5.8091     2.8357    -1.4930 C.ar    
  17 C17            6.4551     3.3049    -0.3633 C.ar    
  18 C18            6.1927     2.7441     0.8742 C.ar    
  19 C19            5.2791     1.7170     0.9895 C.ar    
  20 C20            7.4494     4.4313    -0.4810 C.3     
  21 C21            4.1959     1.2937    -2.6239 C.3     
  22 C22           -3.0129     5.0743    -0.0508 C.3     
  23 C23           -1.8872     5.4609     0.9404 C.3     
  24 C24           -1.0627     4.1540     1.0479 C.3     
  25 H25            2.4464    -2.2430    -0.0095 H       
  26 H26            0.7962    -2.5500    -0.0805 H       
  27 H27           -2.0322     1.6874    -0.3723 H       
  28 H28           -0.1689     3.8826    -0.9141 H       
  29 H29           -2.0105     4.7524    -1.9512 H       
  30 H30           -2.9828     3.3632    -1.3891 H       
  31 H31            6.0185     3.2773    -2.4561 H       
  32 H32            6.7009     3.1144     1.7523 H       
  33 H33            5.0751     1.2801     1.9559 H       
  34 H34            6.9345     5.3844    -0.3609 H       
  35 H35            8.2086     4.3282     0.2943 H       
  36 H36            7.9242     4.3958    -1.4615 H       
  37 H37            3.2290     1.7874    -2.7219 H       
  38 H38            4.8036     1.5071    -3.5032 H       
  39 H39            4.0472     0.2174    -2.5375 H       
  40 H40           -3.4160     5.9633    -0.5358 H       
  41 H41           -3.8032     4.5277     0.4638 H       
  42 H42           -1.2781     6.2697     0.5369 H       
  43 H43           -2.3035     5.7358     1.9096 H       
  44 H44           -1.5381     3.4589     1.7399 H       
  45 H45           -0.0427     4.3715     1.3647 H       
@<TRIPOS>BOND
   1    1    2 2
   2    1    4 1
   3    1   11 1
   4    2    3 1
   5    2    6 1
   6    3   12 3
   7    4    5 1
   8    5    6 2
   9    5    7 1
  10    6   10 1
  11    7    8 1
  12    7    9 2
  13    8   13 ar
  14    8   19 ar
  15   10   25 1
  16   10   26 1
  17   11   14 1
  18   11   27 1
  19   13   16 ar
  20   13   21 1
  21   14   15 1
  22   14   24 1
  23   14   28 1
  24   15   22 1
  25   15   29 1
  26   15   30 1
  27   16   17 ar
  28   16   31 1
  29   17   18 ar
  30   17   20 1
  31   18   19 ar
  32   18   32 1
  33   19   33 1
  34   20   34 1
  35   20   35 1
  36   20   36 1
  37   21   37 1
  38   21   38 1
  39   21   39 1
  40   22   23 1
  41   22   40 1
  42   22   41 1
  43   23   24 1
  44   23   42 1
  45   23   43 1
  46   24   44 1
  47   24   45 1

#	End of record

