#	Name: ASD01910692
#	Creating user name:	WinNT
#	Creation time:	15. 06. 2019 19:56

#	Modifying user name:	WinNT
#	Modification time:	15. 06. 2019 19:56

#	Program:	/corina/corina34_cracker 3.40 0067  02.08.2006

@<TRIPOS>MOLECULE
ASD01910692
  56   59    0    0    0
SMALL
NO_CHARGES


@<TRIPOS>ATOM
   1 C1            12.4937    -1.8916     4.2621 C.ar    
   2 C2            13.1115    -2.0546     3.0295 C.ar    
   3 C3            12.3993    -1.7371     1.8868 C.ar    
   4 C4            11.0957    -1.2681     2.0107 C.ar    
   5 N5            10.5414    -1.1258     3.2049 N.ar    
   6 C6            11.1966    -1.4211     4.3114 C.ar    
   7 N7            10.3685    -0.9453     0.8708 N.3     
   8 C8             9.0227    -0.4722     1.2214 C.3     
   9 C9             8.3209     0.0420    -0.0401 C.3     
  10 N10            8.3620    -1.0155    -1.0615 N.am    
  11 C11            9.6596    -1.6358    -1.3692 C.3     
  12 C12           10.3087    -2.0839    -0.0554 C.3     
  13 C13            7.2404    -1.4055    -1.6989 C.2     
  14 C14            7.3212    -2.3800    -2.8081 C.ar    
  15 O15            6.1624    -0.9562    -1.3620 O.2     
  16 C16            6.3486    -3.3734    -2.9391 C.ar    
  17 C17            6.4225    -4.2838    -3.9747 C.ar    
  18 C18            7.4572    -4.2190    -4.8866 C.ar    
  19 C19            8.4365    -3.2305    -4.7672 C.ar    
  20 C20            8.3650    -2.3056    -3.7285 C.ar    
  21 C21            9.5091    -3.1651    -5.7137 C.1     
  22 C22           10.3885    -3.1115    -6.4896 C.1     
  23 C23           11.4911    -3.0443    -7.4626 C.3     
  24 C24           12.4163    -1.8794    -7.1051 C.3     
  25 C25           12.9869    -2.0933    -5.7017 C.3     
  26 C26           13.7782    -3.4023    -5.6669 C.3     
  27 C27           12.8530    -4.5673    -6.0244 C.3     
  28 C28           12.2824    -4.3533    -7.4278 C.3     
  29 O29           10.9582    -2.8445    -8.7733 O.3     
  30 H30           13.0208    -2.1346     5.1729 H       
  31 H31           14.1255    -2.4207     2.9642 H       
  32 H32           12.8494    -1.8516     0.9118 H       
  33 H33           10.7123    -1.2924     5.2681 H       
  34 H34            8.4479    -1.2942     1.6480 H       
  35 H35            9.0992     0.3351     1.9498 H       
  36 H36            7.2844     0.2871     0.1917 H       
  37 H37            8.8359     0.9285    -0.4100 H       
  38 H38            9.5082    -2.4998    -2.0162 H       
  39 H39           10.3033    -0.9105    -1.8669 H       
  40 H40           11.3178    -2.4454    -0.2530 H       
  41 H41            9.7160    -2.8835     0.3890 H       
  42 H42            5.5371    -3.4300    -2.2288 H       
  43 H43            5.6678    -5.0502    -4.0716 H       
  44 H44            7.5095    -4.9345    -5.6939 H       
  45 H45            9.1196    -1.5390    -3.6320 H       
  46 H46           13.2328    -1.8296    -7.8255 H       
  47 H47           11.8526    -0.9468    -7.1298 H       
  48 H48           13.6460    -1.2634    -5.4470 H       
  49 H49           12.1704    -2.1431    -4.9812 H       
  50 H50           14.5947    -3.3526    -6.3874 H       
  51 H51           14.1847    -3.5548    -4.6671 H       
  52 H52           13.4167    -5.4998    -5.9997 H       
  53 H53           12.0365    -4.6170    -5.3040 H       
  54 H54           11.6233    -5.1832    -7.6825 H       
  55 H55           13.0989    -4.3035    -8.1483 H       
  56 H56           10.3614    -3.5465    -9.0665 H       
@<TRIPOS>BOND
   1    1    2 ar
   2    1    6 ar
   3    1   30 1
   4    2    3 ar
   5    2   31 1
   6    3    4 ar
   7    3   32 1
   8    4    5 ar
   9    4    7 1
  10    5    6 ar
  11    6   33 1
  12    7    8 1
  13    7   12 1
  14    8    9 1
  15    8   34 1
  16    8   35 1
  17    9   10 1
  18    9   36 1
  19    9   37 1
  20   10   11 1
  21   10   13 am
  22   11   12 1
  23   11   38 1
  24   11   39 1
  25   12   40 1
  26   12   41 1
  27   13   14 1
  28   13   15 2
  29   14   16 ar
  30   14   20 ar
  31   16   17 ar
  32   16   42 1
  33   17   18 ar
  34   17   43 1
  35   18   19 ar
  36   18   44 1
  37   19   20 ar
  38   19   21 1
  39   20   45 1
  40   21   22 3
  41   22   23 1
  42   23   24 1
  43   23   29 1
  44   23   28 1
  45   24   25 1
  46   24   46 1
  47   24   47 1
  48   25   26 1
  49   25   48 1
  50   25   49 1
  51   26   27 1
  52   26   50 1
  53   26   51 1
  54   27   28 1
  55   27   52 1
  56   27   53 1
  57   28   54 1
  58   28   55 1
  59   29   56 1

#	End of record

