#	Name: ASD02560426
#	Creating user name:	WinNT
#	Creation time:	15. 06. 2019 20:25

#	Modifying user name:	WinNT
#	Modification time:	15. 06. 2019 20:25

#	Program:	/corina/corina34_cracker 3.40 0067  02.08.2006

@<TRIPOS>MOLECULE
ASD02560426
  57   63    0    0    0
SMALL
NO_CHARGES


@<TRIPOS>ATOM
   1 C1             0.0382     1.4315     0.6705 C.ar    
   2 C2             0.0662    -0.0342     0.6669 C.2     
   3 C3             1.2262    -0.6788     0.4957 C.2     
   4 N4             2.4198    -0.0181     0.3192 N.pl3   
   5 C5             2.4862     1.3551     0.3090 C.2     
   6 C6             1.2520     2.1311     0.4910 C.ar    
   7 C7             3.6956    -0.4834     0.1310 C.2     
   8 C8             4.5094     0.6225     0.0104 C.2     
   9 N9             3.7377     1.7195     0.1240 N.2     
  10 C10            5.9750     0.6066    -0.2060 C.ar    
  11 N11            4.0930    -1.8170     0.0731 N.3     
  12 C12            2.9441    -2.7165     0.2433 C.3     
  13 C13            3.4191    -4.1693     0.1741 C.3     
  14 C14            6.7878    -0.2211     0.5674 C.ar    
  15 C15            6.5471     1.4160    -1.1889 C.ar    
  16 C16            8.1524    -0.2320     0.3608 C.ar    
  17 C17            8.7147     0.5763    -0.6107 C.ar    
  18 C18            7.9135     1.3960    -1.3857 C.ar    
  19 Cl19           5.5429     2.4448    -2.1619 Cl      
  20 C20            2.2908    -2.4578     1.6024 C.3     
  21 C21            1.0942    -3.3946     1.7797 C.3     
  22 C22            1.5693    -4.8474     1.7105 C.3     
  23 C23            2.2226    -5.1061     0.3514 C.3     
  24 C24            0.0759    -3.1375     0.6672 C.3     
  25 C25            1.2043    -4.8490    -0.7611 C.3     
  26 C26            0.7292    -3.3962    -0.6919 C.3     
  27 C27            1.9258    -2.4594    -0.8692 C.3     
  28 C28            1.2547     3.5251     0.4901 C.ar    
  29 C29            0.0701     4.2072     0.6649 C.ar    
  30 C30           -1.1234     3.5203     0.8419 C.ar    
  31 C31           -1.1480     2.1426     0.8514 C.ar    
  32 H32           -0.8481    -0.5929     0.8025 H       
  33 H33            1.2254    -1.7588     0.4965 H       
  34 H34            4.5803    -2.0121    -0.7886 H       
  35 H35            3.8846    -4.3536    -0.7941 H       
  36 H36            4.1446    -4.3525     0.9668 H       
  37 H37            6.3505    -0.8523     1.3268 H       
  38 H38            8.7828    -0.8729     0.9595 H       
  39 H39            9.7832     0.5645    -0.7677 H       
  40 H40            8.3583     2.0248    -2.1427 H       
  41 H41            3.0162    -2.6410     2.3951 H       
  42 H42            1.9524    -1.4228     1.6517 H       
  43 H43            0.6288    -3.2103     2.7480 H       
  44 H44            2.2947    -5.0306     2.5032 H       
  45 H45            0.7168    -5.5148     1.8368 H       
  46 H46            2.5610    -6.1411     0.3021 H       
  47 H47           -0.7765    -3.8049     0.7935 H       
  48 H48           -0.2625    -2.1025     0.7165 H       
  49 H49            1.6697    -5.0333    -1.7294 H       
  50 H50            0.3518    -5.5164    -0.6348 H       
  51 H51            0.0038    -3.2130    -1.4846 H       
  52 H52            1.5874    -1.4244    -0.8199 H       
  53 H53            2.3912    -2.6437    -1.8375 H       
  54 H54            2.1789     4.0669     0.3536 H       
  55 H55            0.0701     5.2872     0.6644 H       
  56 H56           -2.0419     4.0718     0.9782 H       
  57 H57           -2.0812     1.6167     0.9898 H       
@<TRIPOS>BOND
   1    1    2 1
   2    1    6 ar
   3    1   31 ar
   4    2    3 2
   5    2   32 1
   6    3    4 1
   7    3   33 1
   8    4    5 1
   9    4    7 1
  10    5    6 1
  11    5    9 2
  12    6   28 ar
  13    7    8 2
  14    7   11 1
  15    8    9 1
  16    8   10 1
  17   10   14 ar
  18   10   15 ar
  19   11   12 1
  20   11   34 1
  21   12   13 1
  22   12   20 1
  23   12   27 1
  24   13   23 1
  25   13   35 1
  26   13   36 1
  27   14   16 ar
  28   14   37 1
  29   15   19 1
  30   15   18 ar
  31   16   17 ar
  32   16   38 1
  33   17   18 ar
  34   17   39 1
  35   18   40 1
  36   20   21 1
  37   20   41 1
  38   20   42 1
  39   21   22 1
  40   21   24 1
  41   21   43 1
  42   22   23 1
  43   22   44 1
  44   22   45 1
  45   23   25 1
  46   23   46 1
  47   24   26 1
  48   24   47 1
  49   24   48 1
  50   25   26 1
  51   25   49 1
  52   25   50 1
  53   26   27 1
  54   26   51 1
  55   27   52 1
  56   27   53 1
  57   28   29 ar
  58   28   54 1
  59   29   30 ar
  60   29   55 1
  61   30   31 ar
  62   30   56 1
  63   31   57 1

#	End of record

