#	Name: ASD01816438
#	Creating user name:	WinNT
#	Creation time:	15. 06. 2019 19:35

#	Modifying user name:	WinNT
#	Modification time:	15. 06. 2019 19:35

#	Program:	/corina/corina34_cracker 3.40 0067  02.08.2006

@<TRIPOS>MOLECULE
ASD01816438
  50   55    0    0    0
SMALL
NO_CHARGES


@<TRIPOS>ATOM
   1 C1            -0.0167     1.3813     0.0096 C.ar    
   2 C2             0.0021    -0.0041     0.0020 C.ar    
   3 C3             1.1984    -0.6909    -0.0131 C.ar    
   4 C4             2.4015     0.0059    -0.0208 C.ar    
   5 C5             2.3790     1.4106    -0.0130 C.ar    
   6 C6             1.1663     2.0916     0.0022 C.ar    
   7 N7             3.6053    -0.6772    -0.0354 N.pl3   
   8 C8             4.7970    -0.0585    -0.0430 C.2     
   9 C9             4.9000     1.3103    -0.0366 C.2     
  10 C10            3.6670     2.1302    -0.0215 C.2     
  11 C11            5.9971     2.2730    -0.0414 C.2     
  12 N12            5.4245     3.4961    -0.0301 N.am    
  13 N13            4.0323     3.3799    -0.0183 N.2     
  14 C14            6.1247     4.7054    -0.0298 C.ar    
  15 O15            7.1913     2.0230    -0.0527 O.2     
  16 C16            3.5779    -2.1419    -0.0425 C.3     
  17 C17            3.5552    -2.6370    -1.4657 C.ar    
  18 C18            4.7430    -2.8861    -2.1285 C.ar    
  19 C19            4.7254    -3.3395    -3.4331 C.ar    
  20 C20            3.5137    -3.5456    -4.0786 C.ar    
  21 C21            2.3228    -3.2951    -3.4103 C.ar    
  22 C22            2.3467    -2.8467    -2.1041 C.ar    
  23 N23            3.4926    -4.0053    -5.4028 N.pl3   
  24 C24            2.3877    -4.2462    -6.1441 C.2     
  25 C25            2.7941    -4.6752    -7.3615 C.2     
  26 C26            4.1931    -4.6976    -7.3654 C.2     
  27 N27            4.6126    -4.2906    -6.1944 N.2     
  28 C28            7.0644     4.9879    -1.0200 C.ar    
  29 C29            7.7351     6.1927    -0.9852 C.ar    
  30 N30            7.4978     7.0731    -0.0310 N.ar    
  31 C31            6.6162     6.8451     0.9253 C.ar    
  32 C32            5.8973     5.6636     0.9581 C.ar    
  33 Cl33           6.3515     8.0448     2.1519 Cl      
  34 F34            4.9926     5.4387     1.9359 F       
  35 H35           -0.9602     1.9068     0.0169 H       
  36 H36           -0.9288    -0.5516     0.0083 H       
  37 H37            1.2004    -1.7709    -0.0185 H       
  38 H38            1.1506     3.1715     0.0084 H       
  39 H39            5.6983    -0.6535    -0.0540 H       
  40 H40            4.4657    -2.5243     0.4612 H       
  41 H41            2.6861    -2.4911     0.4779 H       
  42 H42            5.6853    -2.7255    -1.6258 H       
  43 H43            5.6534    -3.5331    -3.9505 H       
  44 H44            1.3787    -3.4541    -3.9100 H       
  45 H45            1.4207    -2.6517    -1.5837 H       
  46 H46            1.3645    -4.1197    -5.8222 H       
  47 H47            2.1520    -4.9516    -8.1847 H       
  48 H48            4.8191    -4.9950    -8.1937 H       
  49 H49            7.2650     4.2726    -1.8039 H       
  50 H50            8.4645     6.4185    -1.7489 H       
@<TRIPOS>BOND
   1    1    2 ar
   2    1    6 ar
   3    1   35 1
   4    2    3 ar
   5    2   36 1
   6    3    4 ar
   7    3   37 1
   8    4    5 ar
   9    4    7 1
  10    5    6 ar
  11    5   10 1
  12    6   38 1
  13    7    8 1
  14    7   16 1
  15    8    9 2
  16    8   39 1
  17    9   10 1
  18    9   11 1
  19   10   13 2
  20   11   12 am
  21   11   15 2
  22   12   13 1
  23   12   14 1
  24   14   32 ar
  25   14   28 ar
  26   16   17 1
  27   16   40 1
  28   16   41 1
  29   17   18 ar
  30   17   22 ar
  31   18   19 ar
  32   18   42 1
  33   19   20 ar
  34   19   43 1
  35   20   21 ar
  36   20   23 1
  37   21   22 ar
  38   21   44 1
  39   22   45 1
  40   23   24 1
  41   23   27 1
  42   24   25 2
  43   24   46 1
  44   25   26 1
  45   25   47 1
  46   26   27 2
  47   26   48 1
  48   28   29 ar
  49   28   49 1
  50   29   30 ar
  51   29   50 1
  52   30   31 ar
  53   31   32 ar
  54   31   33 1
  55   32   34 1

#	End of record

