#	Name: ASD01913585
#	Creating user name:	WinNT
#	Creation time:	15. 06. 2019 20:01

#	Modifying user name:	WinNT
#	Modification time:	15. 06. 2019 20:01

#	Program:	/corina/corina34_cracker 3.40 0067  02.08.2006

@<TRIPOS>MOLECULE
ASD01913585
  33   35    0    0    0
SMALL
NO_CHARGES


@<TRIPOS>ATOM
   1 C1            -2.8083     0.2909    -1.2467 C.ar    
   2 C2            -2.3017    -0.1541    -0.0299 C.ar    
   3 C3            -3.0948    -0.0155     1.1046 C.ar    
   4 N4            -4.2939     0.5306     0.9868 N.ar    
   5 C5            -4.7386     0.9400    -0.1843 C.ar    
   6 N6            -4.0175     0.8261    -1.2815 N.ar    
   7 C7            -0.9771    -2.0621     0.1329 C.ar    
   8 C8             0.2611    -2.6938     0.2074 C.ar    
   9 C9             0.3127    -4.0734     0.2982 C.ar    
  10 N10           -0.7890    -4.7927     0.3145 N.ar    
  11 C11           -1.9916    -4.2324     0.2456 C.ar    
  12 C12           -2.1249    -2.8511     0.1529 C.ar    
  13 C13           -3.2016    -5.0867     0.2677 C.2     
  14 N14           -3.0795    -6.4259     0.3574 N.am    
  15 O15           -1.0641    -0.7102     0.0485 O.3     
  16 O16           -4.3043    -4.5799     0.2050 O.2     
  17 C17           -4.2160    -7.2222     0.4843 C.ar    
  18 C18           -4.0786    -8.5897     0.6933 C.ar    
  19 C19           -5.2152    -9.3694     0.8181 C.ar    
  20 C20           -6.5174    -7.3852     0.5255 C.ar    
  21 N21           -5.4161    -6.6685     0.4102 N.ar    
  22 C22           -6.4557    -8.7510     0.7292 C.ar    
  23 Cl23          -7.9130    -9.6825     0.8788 Cl      
  24 H24           -2.2211     0.2046    -2.1491 H       
  25 H25           -2.7369    -0.3491     2.0674 H       
  26 H26           -5.7223     1.3813    -0.2467 H       
  27 H27            1.1717    -2.1132     0.1940 H       
  28 H28            1.2714    -4.5672     0.3562 H       
  29 H29           -3.1033    -2.3971     0.0973 H       
  30 H30           -2.2005    -6.8354     0.3336 H       
  31 H31           -3.0980    -9.0377     0.7570 H       
  32 H32           -5.1393   -10.4344     0.9806 H       
  33 H33           -7.4795    -6.8989     0.4597 H       
@<TRIPOS>BOND
   1    1    2 ar
   2    1    6 ar
   3    1   24 1
   4    2    3 ar
   5    2   15 1
   6    3    4 ar
   7    3   25 1
   8    4    5 ar
   9    5    6 ar
  10    5   26 1
  11    7    8 ar
  12    7   12 ar
  13    7   15 1
  14    8    9 ar
  15    8   27 1
  16    9   10 ar
  17    9   28 1
  18   10   11 ar
  19   11   12 ar
  20   11   13 1
  21   12   29 1
  22   13   14 am
  23   13   16 2
  24   14   17 1
  25   14   30 1
  26   17   18 ar
  27   17   21 ar
  28   18   19 ar
  29   18   31 1
  30   19   22 ar
  31   19   32 1
  32   20   21 ar
  33   20   22 ar
  34   20   33 1
  35   22   23 1

#	End of record

