#	Name: ASD01814169
#	Creating user name:	WinNT
#	Creation time:	15. 06. 2019 19:31

#	Modifying user name:	WinNT
#	Modification time:	15. 06. 2019 19:31

#	Program:	/corina/corina34_cracker 3.40 0067  02.08.2006

@<TRIPOS>MOLECULE
ASD01814169
  43   46    0    0    0
SMALL
NO_CHARGES


@<TRIPOS>ATOM
   1 C1            -0.0167     1.3820     0.0096 C.ar    
   2 C2             0.0021    -0.0041     0.0020 C.ar    
   3 C3             1.1959    -0.6932    -0.0130 C.ar    
   4 C4             2.4016     0.0019    -0.0208 C.ar    
   5 C5             2.3831     1.4075    -0.0131 C.ar    
   6 C6             1.1665     2.0939     0.0022 C.ar    
   7 N7             3.6010    -0.6771    -0.0354 N.pl3   
   8 C8             4.7870    -0.0549    -0.0424 C.2     
   9 C9             4.8957     1.3208    -0.0361 C.2     
  10 C10            3.6667     2.1313    -0.0214 C.2     
  11 C11            6.2161     1.9660    -0.0437 C.2     
  12 O12            6.3092     3.3109    -0.0374 O.3     
  13 O13            7.2243     1.2870    -0.0558 O.2     
  14 O14            3.7090     3.3491    -0.0157 O.2     
  15 F15            1.1476     3.4448     0.0096 F       
  16 C16            3.5775    -2.1419    -0.0430 C.3     
  17 C17            3.5565    -2.6366    -1.4663 C.ar    
  18 C18            4.7428    -2.8830    -2.1313 C.ar    
  19 C19            4.7179    -3.3346    -3.4359 C.ar    
  20 C20            3.5092    -3.5418    -4.0825 C.ar    
  21 C21            2.3254    -3.3003    -3.4181 C.ar    
  22 C22            2.3521    -2.8500    -2.1067 C.ar    
  23 C23            3.5307    -4.0243    -5.5101 C.3     
  24 C24            2.1591    -4.5798    -5.8943 C.3     
  25 N25            1.1342    -3.5885    -5.5305 N.3     
  26 C26            0.9872    -3.5215    -4.0731 C.3     
  27 H27           -0.9604     1.9071     0.0169 H       
  28 H28           -0.9295    -0.5505     0.0083 H       
  29 H29            1.1956    -1.7731    -0.0185 H       
  30 H30            5.6884    -0.6497    -0.0531 H       
  31 H31            7.1990     3.6894    -0.0429 H       
  32 H32            4.4662    -2.5222     0.4608 H       
  33 H33            2.6865    -2.4937     0.4772 H       
  34 H34            5.6869    -2.7225    -1.6319 H       
  35 H35            5.6449    -3.5271    -3.9556 H       
  36 H36            1.4257    -2.6574    -1.5860 H       
  37 H37            3.7821    -3.1932    -6.1692 H       
  38 H38            4.2811    -4.8078    -5.6160 H       
  39 H39            2.1261    -4.7633    -6.9682 H       
  40 H40            1.9767    -5.5096    -5.3554 H       
  41 H41            1.3561    -2.6818    -5.9137 H       
  42 H42            0.5588    -4.4560    -3.7109 H       
  43 H43            0.3197    -2.6991    -3.8158 H       
@<TRIPOS>BOND
   1    1    2 ar
   2    1    6 ar
   3    1   27 1
   4    2    3 ar
   5    2   28 1
   6    3    4 ar
   7    3   29 1
   8    4    5 ar
   9    4    7 1
  10    5    6 ar
  11    5   10 1
  12    6   15 1
  13    7    8 1
  14    7   16 1
  15    8    9 2
  16    8   30 1
  17    9   10 1
  18    9   11 1
  19   10   14 2
  20   11   12 1
  21   11   13 2
  22   12   31 1
  23   16   17 1
  24   16   32 1
  25   16   33 1
  26   17   18 ar
  27   17   22 ar
  28   18   19 ar
  29   18   34 1
  30   19   20 ar
  31   19   35 1
  32   20   21 ar
  33   20   23 1
  34   21   22 ar
  35   21   26 1
  36   22   36 1
  37   23   24 1
  38   23   37 1
  39   23   38 1
  40   24   25 1
  41   24   39 1
  42   24   40 1
  43   25   26 1
  44   25   41 1
  45   26   42 1
  46   26   43 1

#	End of record

