#	Name: ASD03240776
#	Creating user name:	WinNT
#	Creation time:	15. 06. 2019 20:35

#	Modifying user name:	WinNT
#	Modification time:	15. 06. 2019 20:35

#	Program:	/corina/corina34_cracker 3.40 0067  02.08.2006

@<TRIPOS>MOLECULE
ASD03240776
  79   86    0    0    0
SMALL
NO_CHARGES


@<TRIPOS>ATOM
   1 N1             0.1352     1.8638     0.0344 N.3     
   2 C2            -0.0691     0.4140     0.1470 C.3     
   3 C3             0.6043    -0.0999     1.4216 C.3     
   4 C4             2.1006     0.2208     1.3673 C.3     
   5 C5             2.2850     1.7318     1.2013 C.3     
   6 C6             1.5628     2.1926    -0.0669 C.3     
   7 C7             2.7588    -0.2293     2.6460 C.2     
   8 O8             2.0973    -0.7551     3.5161 O.2     
   9 N9             4.0825    -0.0476     2.8228 N.am    
  10 C10           -0.6137     2.4142    -1.1032 C.3     
  11 C11           -0.5819     3.9197    -1.0445 C.ar    
  12 C12            0.4357     4.6124    -1.6758 C.ar    
  13 C13            0.4701     5.9908    -1.6260 C.ar    
  14 C14           -0.5239     6.6860    -0.9373 C.ar    
  15 C15           -1.5473     5.9818    -0.3027 C.ar    
  16 C16           -1.5736     4.6037    -0.3642 C.ar    
  17 C17            2.0245    12.1196    -0.6501 C.2     
  18 N18            0.9120    12.8752    -0.6550 N.2     
  19 C19           -0.2841    12.3488    -0.7117 C.2     
  20 C20           -0.4178    10.8948    -0.7725 C.ar    
  21 C21            0.7535    10.1073    -0.7665 C.ar    
  22 N22            1.9734    10.7530    -0.7041 N.pl3   
  23 C23           -1.6691    10.2731    -0.8350 C.ar    
  24 C24           -1.7041     8.8833    -0.8894 C.ar    
  25 C25           -0.4927     8.1654    -0.8795 C.ar    
  26 N26            0.6744     8.7893    -0.8200 N.ar    
  27 N27            3.2886    10.2733    -0.6819 N.2     
  28 C28            4.1097    11.2937    -0.6173 C.2     
  29 C29            3.3671    12.4675    -0.5900 C.2     
  30 C30           -3.0006     8.1672    -0.9564 C.ar    
  31 C31           -4.0157     8.4718    -0.0510 C.ar    
  32 C32           -5.2206     7.8022    -0.1184 C.ar    
  33 C33           -5.4217     6.8302    -1.0819 C.ar    
  34 C34           -4.4178     6.5234    -1.9827 C.ar    
  35 C35           -3.2110     7.1907    -1.9287 C.ar    
  36 C36            5.6136    11.2070    -0.5742 C.3     
  37 C37            5.8088    -2.5749     8.3456 C.2     
  38 C38            6.3713    -1.5138     7.7929 C.2     
  39 C39            5.8720    -1.0279     6.5004 C.ar    
  40 C40            4.8088    -1.7747     5.9728 C.ar    
  41 S41            4.5404    -3.0412     7.1859 S.o2    
  42 C42            4.2193    -1.4671     4.7815 C.ar    
  43 C43            4.6759    -0.3749     4.0456 C.ar    
  44 C44            5.7287     0.3845     4.5424 C.ar    
  45 C45            6.3197     0.0724     5.7421 C.ar    
  46 O46            4.9190    -4.2823     6.6066 O.2     
  47 O47            3.2822    -2.7940     7.7983 O.2     
  48 H48           -1.1370     0.1999     0.1889 H       
  49 H49            0.3670    -0.0826    -0.7197 H       
  50 H50            0.1592     0.3862     2.2897 H       
  51 H51            0.4658    -1.1784     1.4968 H       
  52 H52            2.5536    -0.2965     0.5216 H       
  53 H53            1.8663     2.2467     2.0659 H       
  54 H54            3.3473     1.9619     1.1191 H       
  55 H55            1.9913     1.6876    -0.9326 H       
  56 H56            1.6802     3.2703    -0.1804 H       
  57 H57            4.6235     0.3103     2.1016 H       
  58 H58           -0.1590     2.0773    -2.0348 H       
  59 H59           -1.6472     2.0706    -1.0582 H       
  60 H60            1.2050     4.0731    -2.2085 H       
  61 H61            1.2652     6.5305    -2.1190 H       
  62 H62           -2.3196     6.5145     0.2324 H       
  63 H63           -2.3677     4.0575     0.1232 H       
  64 H64           -1.1606    12.9798    -0.7139 H       
  65 H65           -2.5798    10.8537    -0.8402 H       
  66 H66            3.7633    13.4707    -0.5339 H       
  67 H67           -3.8595     9.2300     0.7021 H       
  68 H68           -6.0078     8.0373     0.5826 H       
  69 H69           -6.3661     6.3085    -1.1307 H       
  70 H70           -4.5803     5.7633    -2.7326 H       
  71 H71           -2.4295     6.9536    -2.6354 H       
  72 H72            6.0079    11.2260    -1.5902 H       
  73 H73            6.0104    12.0541    -0.0146 H       
  74 H74            5.9101    10.2784    -0.0866 H       
  75 H75            6.0628    -3.0512     9.2811 H       
  76 H76            7.1888    -1.0096     8.2868 H       
  77 H77            3.4026    -2.0680     4.4095 H       
  78 H78            6.0870     1.2320     3.9769 H       
  79 H79            7.1362     0.6769     6.1085 H       
@<TRIPOS>BOND
   1    1    2 1
   2    1    6 1
   3    1   10 1
   4    2    3 1
   5    2   48 1
   6    2   49 1
   7    3    4 1
   8    3   50 1
   9    3   51 1
  10    4    5 1
  11    4    7 1
  12    4   52 1
  13    5    6 1
  14    5   53 1
  15    5   54 1
  16    6   55 1
  17    6   56 1
  18    7    8 2
  19    7    9 am
  20    9   43 1
  21    9   57 1
  22   10   11 1
  23   10   58 1
  24   10   59 1
  25   11   12 ar
  26   11   16 ar
  27   12   13 ar
  28   12   60 1
  29   13   14 ar
  30   13   61 1
  31   14   15 ar
  32   14   25 1
  33   15   16 ar
  34   15   62 1
  35   16   63 1
  36   17   18 1
  37   17   22 1
  38   17   29 2
  39   18   19 2
  40   19   20 1
  41   19   64 1
  42   20   21 ar
  43   20   23 ar
  44   21   22 1
  45   21   26 ar
  46   22   27 1
  47   23   24 ar
  48   23   65 1
  49   24   25 ar
  50   24   30 1
  51   25   26 ar
  52   27   28 2
  53   28   29 1
  54   28   36 1
  55   29   66 1
  56   30   31 ar
  57   30   35 ar
  58   31   32 ar
  59   31   67 1
  60   32   33 ar
  61   32   68 1
  62   33   34 ar
  63   33   69 1
  64   34   35 ar
  65   34   70 1
  66   35   71 1
  67   36   72 1
  68   36   73 1
  69   36   74 1
  70   37   38 2
  71   37   41 1
  72   37   75 1
  73   38   39 1
  74   38   76 1
  75   39   40 ar
  76   39   45 ar
  77   40   41 1
  78   40   42 ar
  79   41   46 2
  80   41   47 2
  81   42   43 ar
  82   42   77 1
  83   43   44 ar
  84   44   45 ar
  85   44   78 1
  86   45   79 1

#	End of record

