#	Name: ASD06190008
#	Creating user name:	WinNT
#	Creation time:	15. 06. 2019 21:05

#	Modifying user name:	WinNT
#	Modification time:	15. 06. 2019 21:05

#	Program:	/corina/corina34_cracker 3.40 0067  02.08.2006

@<TRIPOS>MOLECULE
ASD06190008
  40   43    0    0    0
SMALL
NO_CHARGES


@<TRIPOS>ATOM
   1 N1            -0.2865     1.5548    -0.8895 N.2     
   2 C2            -0.1445     0.3539    -1.4489 C.2     
   3 C3             0.7997     2.2229    -0.6526 C.2     
   4 S4             2.1929     1.2804    -1.1732 S.3     
   5 C5             1.1228    -0.0166    -1.6994 C.2     
   6 C6             1.5547    -1.3186    -2.3235 C.3     
   7 C7            -1.3035    -0.5132    -1.7718 C.ar    
   8 C8            -1.2582    -1.8766    -1.4856 C.ar    
   9 C9            -2.4442     0.0333    -2.3576 C.ar    
  10 C10           -3.5203    -0.7791    -2.6561 C.ar    
  11 C11           -3.4669    -2.1338    -2.3744 C.ar    
  12 C12           -2.3394    -2.6794    -1.7881 C.ar    
  13 C13           -4.6442    -3.0157    -2.7018 C.3     
  14 Cl14          -4.9424    -0.1009    -3.3851 Cl      
  15 N15            0.8551     3.4827    -0.0788 N.am    
  16 S16            2.3199     4.1584     0.2955 S.o2    
  17 C17            3.0460     3.1642     1.5561 C.ar    
  18 O18            3.1380     4.0065    -0.8564 O.2     
  19 O19            2.0404     5.4186     0.8896 O.2     
  20 C20            4.1790     2.4623     1.3063 C.ar    
  21 C21            2.4581     3.0957     2.8341 C.ar    
  22 C22            3.1002     2.2469     3.8687 C.ar    
  23 C23            4.2729     1.5429     3.5326 C.ar    
  24 C24            4.7848     1.6611     2.2825 C.ar    
  25 N25            1.4225     3.5897     3.4667 N.2     
  26 O26            1.4122     3.1644     4.6045 O.3     
  27 N27            2.3152     2.4097     4.9049 N.2     
  28 H28            2.6359    -1.3141    -2.4620 H       
  29 H29            1.2756    -2.1450    -1.6699 H       
  30 H30            1.0651    -1.4383    -3.2899 H       
  31 H31           -0.3783    -2.3042    -1.0280 H       
  32 H32           -2.4865     1.0899    -2.5771 H       
  33 H33           -2.3030    -3.7367    -1.5710 H       
  34 H34           -4.5351    -3.4067    -3.7134 H       
  35 H35           -4.6855    -3.8441    -1.9946 H       
  36 H36           -5.5636    -2.4342    -2.6343 H       
  37 H37            0.0358     3.9690     0.1036 H       
  38 H38            4.6273     2.5226     0.3256 H       
  39 H39            4.7619     0.9176     4.2649 H       
  40 H40            5.6842     1.1187     2.0311 H       
@<TRIPOS>BOND
   1    1    2 1
   2    1    3 2
   3    2    7 1
   4    2    5 2
   5    3    4 1
   6    3   15 1
   7    4    5 1
   8    5    6 1
   9    6   28 1
  10    6   29 1
  11    6   30 1
  12    7    8 ar
  13    7    9 ar
  14    8   12 ar
  15    8   31 1
  16    9   10 ar
  17    9   32 1
  18   10   11 ar
  19   10   14 1
  20   11   12 ar
  21   11   13 1
  22   12   33 1
  23   13   34 1
  24   13   35 1
  25   13   36 1
  26   15   16 am
  27   15   37 1
  28   16   17 1
  29   16   18 2
  30   16   19 2
  31   17   20 ar
  32   17   21 ar
  33   20   24 ar
  34   20   38 1
  35   21   22 ar
  36   21   25 2
  37   22   23 ar
  38   22   27 2
  39   23   24 ar
  40   23   39 1
  41   24   40 1
  42   25   26 1
  43   26   27 1

#	End of record

