#	Name: ASD01815878
#	Creating user name:	WinNT
#	Creation time:	15. 06. 2019 19:34

#	Modifying user name:	WinNT
#	Modification time:	15. 06. 2019 19:34

#	Program:	/corina/corina34_cracker 3.40 0067  02.08.2006

@<TRIPOS>MOLECULE
ASD01815878
  54   59    0    0    0
SMALL
NO_CHARGES


@<TRIPOS>ATOM
   1 C1            -0.0167     1.3813     0.0096 C.ar    
   2 C2             0.0021    -0.0041     0.0020 C.ar    
   3 C3             1.1984    -0.6909    -0.0127 C.ar    
   4 C4             2.4015     0.0058    -0.0200 C.ar    
   5 C5             2.3791     1.4106    -0.0127 C.ar    
   6 C6             1.1663     2.0917     0.0022 C.ar    
   7 N7             3.6053    -0.6773    -0.0338 N.pl3   
   8 C8             4.7970    -0.0587    -0.0409 C.2     
   9 C9             4.8999     1.3101    -0.0354 C.2     
  10 C10            3.6669     2.1300    -0.0207 C.2     
  11 C11            5.9971     2.2728    -0.0402 C.2     
  12 N12            5.4246     3.4960    -0.0296 N.am    
  13 N13            4.0324     3.3800    -0.0181 N.2     
  14 C14            6.1249     4.7049    -0.0292 C.2     
  15 O15            7.1915     2.0227    -0.0510 O.2     
  16 C16            3.5779    -2.1421    -0.0404 C.3     
  17 C17            3.5560    -2.6376    -1.4634 C.ar    
  18 C18            4.7451    -2.8866    -2.1247 C.ar    
  19 C19            4.7309    -3.3406    -3.4280 C.ar    
  20 C20            3.5157    -3.5481    -4.0776 C.ar    
  21 C21            2.3209    -3.2956    -3.4066 C.ar    
  22 C22            2.3468    -2.8472    -2.1015 C.ar    
  23 C23            3.4942    -4.0356    -5.4789 C.ar    
  24 C24            2.2790    -4.2430    -6.1285 C.ar    
  25 C25            2.2648    -4.6966    -7.4319 C.ar    
  26 C26            3.4539    -4.9457    -8.0932 C.ar    
  27 C27            4.6631    -4.7419    -7.4531 C.ar    
  28 C28            4.6891    -4.2821    -6.1519 C.ar    
  29 C29            7.4704     4.8598    -0.0394 C.2     
  30 C30            6.6195     6.8447    -0.0222 C.2     
  31 N31            7.7383     6.1738    -0.0349 N.2     
  32 N32            5.5831     5.9647    -0.0242 N.pl3   
  33 C33            4.1568     6.2991    -0.0183 C.3     
  34 H34           -0.9602     1.9068     0.0170 H       
  35 H35           -0.9289    -0.5515     0.0080 H       
  36 H36            1.2003    -1.7709    -0.0181 H       
  37 H37            1.1506     3.1715     0.0074 H       
  38 H38            5.6983    -0.6537    -0.0509 H       
  39 H39            4.4654    -2.5243     0.4639 H       
  40 H40            2.6858    -2.4911     0.4797 H       
  41 H41            5.6864    -2.7252    -1.6204 H       
  42 H42            5.6599    -3.5344    -3.9436 H       
  43 H43            1.3763    -3.4547    -3.9054 H       
  44 H44            1.4213    -2.6512    -1.5805 H       
  45 H45            1.3500    -4.0496    -5.6128 H       
  46 H46            1.3236    -4.8577    -7.9363 H       
  47 H47            3.4382    -5.3008    -9.1130 H       
  48 H48            5.5885    -4.9382    -7.9740 H       
  49 H49            5.6337    -4.1231    -5.6531 H       
  50 H50            8.2003     4.0638    -0.0490 H       
  51 H51            6.5311     7.9211    -0.0154 H       
  52 H52            3.8067     6.3795     1.0108 H       
  53 H53            4.0044     7.2498    -0.5293 H       
  54 H54            3.5981     5.5168    -0.5321 H       
@<TRIPOS>BOND
   1    1    2 ar
   2    1    6 ar
   3    1   34 1
   4    2    3 ar
   5    2   35 1
   6    3    4 ar
   7    3   36 1
   8    4    5 ar
   9    4    7 1
  10    5    6 ar
  11    5   10 1
  12    6   37 1
  13    7    8 1
  14    7   16 1
  15    8    9 2
  16    8   38 1
  17    9   10 1
  18    9   11 1
  19   10   13 2
  20   11   12 am
  21   11   15 2
  22   12   13 1
  23   12   14 1
  24   14   29 2
  25   14   32 1
  26   16   17 1
  27   16   39 1
  28   16   40 1
  29   17   18 ar
  30   17   22 ar
  31   18   19 ar
  32   18   41 1
  33   19   20 ar
  34   19   42 1
  35   20   21 ar
  36   20   23 1
  37   21   22 ar
  38   21   43 1
  39   22   44 1
  40   23   24 ar
  41   23   28 ar
  42   24   25 ar
  43   24   45 1
  44   25   26 ar
  45   25   46 1
  46   26   27 ar
  47   26   47 1
  48   27   28 ar
  49   27   48 1
  50   28   49 1
  51   29   31 1
  52   29   50 1
  53   30   31 2
  54   30   32 1
  55   30   51 1
  56   32   33 1
  57   33   52 1
  58   33   53 1
  59   33   54 1

#	End of record

