#	Name: ASD00191016
#	Creating user name:	WinNT
#	Creation time:	15. 06. 2019 18:33

#	Modifying user name:	WinNT
#	Modification time:	15. 06. 2019 18:33

#	Program:	/corina/corina34_cracker 3.40 0067  02.08.2006

@<TRIPOS>MOLECULE
ASD00191016
  40   43    0    0    0
SMALL
NO_CHARGES


@<TRIPOS>ATOM
   1 C1             0.2252     1.4444     0.3053 C.2     
   2 C2             0.0586     0.0039     0.0900 C.2     
   3 O3             0.6117    -0.5390    -0.8482 O.2     
   4 N4            -0.7071    -0.7190     0.9311 N.am    
   5 N5            -1.0389    -4.8376     0.4098 N.ar    
   6 C6             0.0398    -4.2026    -0.0047 C.ar    
   7 C7             0.1843    -2.8208     0.1540 C.ar    
   8 C8            -0.8220    -2.0937     0.7588 C.ar    
   9 C9            -1.9751    -2.7905     1.1991 C.ar    
  10 C10           -3.0361    -2.1196     1.8205 C.ar    
  11 C11           -4.1303    -2.8218     2.2309 C.ar    
  12 C12           -4.2063    -4.1984     2.0405 C.ar    
  13 C13           -3.1918    -4.8807     1.4401 C.ar    
  14 C14           -2.0491    -4.1899     1.0034 C.ar    
  15 N15            1.0576    -4.9239    -0.6136 N.pl3   
  16 C16            1.0258    -6.3218    -0.6046 C.ar    
  17 C17            2.2064    -7.0453    -0.7181 C.ar    
  18 C18            2.1728    -8.4258    -0.7090 C.ar    
  19 C19            0.9646    -9.0893    -0.5870 C.ar    
  20 C20           -0.2140    -8.3711    -0.4736 C.ar    
  21 C21           -0.1852    -6.9891    -0.4764 C.ar    
  22 C22            0.9688     2.2907    -0.4669 C.2     
  23 C23            0.8450     3.5684     0.1005 C.2     
  24 C24            0.0415     3.4479     1.1804 C.2     
  25 O25           -0.3340     2.1676     1.2976 O.3     
  26 Cl26          -1.7279    -9.2069    -0.3207 Cl      
  27 Cl27           0.9263   -10.8248    -0.5765 Cl      
  28 H28           -1.1781    -0.2802     1.6568 H       
  29 H29            1.0783    -2.3250    -0.1943 H       
  30 H30           -2.9875    -1.0517     1.9741 H       
  31 H31           -4.9479    -2.3036     2.7100 H       
  32 H32           -5.0829    -4.7338     2.3741 H       
  33 H33           -3.2656    -5.9491     1.3002 H       
  34 H34            1.7908    -4.4582    -1.0453 H       
  35 H35            3.1498    -6.5284    -0.8137 H       
  36 H36            3.0905    -8.9882    -0.7976 H       
  37 H37           -1.1039    -6.4290    -0.3832 H       
  38 H38            1.5412     2.0276    -1.3441 H       
  39 H39            1.3053     4.4770    -0.2584 H       
  40 H40           -0.2525     4.2523     1.8384 H       
@<TRIPOS>BOND
   1    1    2 1
   2    1   22 2
   3    1   25 1
   4    2    3 2
   5    2    4 am
   6    4    8 1
   7    4   28 1
   8    5    6 ar
   9    5   14 ar
  10    6    7 ar
  11    6   15 1
  12    7    8 ar
  13    7   29 1
  14    8    9 ar
  15    9   10 ar
  16    9   14 ar
  17   10   11 ar
  18   10   30 1
  19   11   12 ar
  20   11   31 1
  21   12   13 ar
  22   12   32 1
  23   13   14 ar
  24   13   33 1
  25   15   16 1
  26   15   34 1
  27   16   17 ar
  28   16   21 ar
  29   17   18 ar
  30   17   35 1
  31   18   19 ar
  32   18   36 1
  33   19   20 ar
  34   19   27 1
  35   20   21 ar
  36   20   26 1
  37   21   37 1
  38   22   23 1
  39   22   38 1
  40   23   24 2
  41   23   39 1
  42   24   25 1
  43   24   40 1

#	End of record

