#	Name: ASD01152224
#	Creating user name:	WinNT
#	Creation time:	15. 06. 2019 19:05

#	Modifying user name:	WinNT
#	Modification time:	15. 06. 2019 19:05

#	Program:	/corina/corina34_cracker 3.40 0067  02.08.2006

@<TRIPOS>MOLECULE
ASD01152224
  31   32    0    0    0
SMALL
NO_CHARGES


@<TRIPOS>ATOM
   1 C1            -0.2230     1.4352    -0.2662 C.2     
   2 C2            -0.2111    -0.0654    -0.1272 C.3     
   3 O3             0.6624     1.9946    -0.8779 O.2     
   4 N4            -1.2206     2.1550     0.2844 N.am    
   5 C5            -1.1752     3.5532     0.2513 C.ar    
   6 C6            -2.3506     4.2840     0.1522 C.ar    
   7 C7            -2.3013     5.6704     0.1202 C.ar    
   8 C8            -1.0758     6.3223     0.1874 C.ar    
   9 C9             0.0922     5.5917     0.2855 C.ar    
  10 C10            0.0460     4.2110     0.3233 C.ar    
  11 N11           -4.4672     6.1378     0.8038 N.2     
  12 N12           -3.4842     6.4112     0.0199 N.am    
  13 C13           -3.5700     7.3948    -0.8937 C.2     
  14 N14           -4.6884     8.1171    -1.0085 N.2     
  15 C15           -5.7131     7.8515    -0.2103 C.2     
  16 C16           -5.5847     6.8107     0.7360 C.2     
  17 O17           -2.6200     7.6292    -1.6222 O.2     
  18 O18           -6.8587     8.5633    -0.3000 O.3     
  19 C19           -6.9038     9.5986    -1.2840 C.3     
  20 H20            0.6628    -0.4705    -0.6374 H       
  21 H21           -0.1714    -0.3321     0.9289 H       
  22 H22           -1.1159    -0.4787    -0.5726 H       
  23 H23           -1.9700     1.7038     0.7036 H       
  24 H24           -3.3016     3.7749     0.0998 H       
  25 H25           -1.0367     7.4013     0.1625 H       
  26 H26            1.0434     6.1006     0.3368 H       
  27 H27            0.9608     3.6428     0.4049 H       
  28 H28           -6.4041     6.5731     1.3983 H       
  29 H29           -6.7490     9.1669    -2.2729 H       
  30 H30           -7.8762    10.0899    -1.2502 H       
  31 H31           -6.1206    10.3286    -1.0796 H       
@<TRIPOS>BOND
   1    1    2 1
   2    1    3 2
   3    1    4 am
   4    2   20 1
   5    2   21 1
   6    2   22 1
   7    4    5 1
   8    4   23 1
   9    5    6 ar
  10    5   10 ar
  11    6    7 ar
  12    6   24 1
  13    7    8 ar
  14    7   12 1
  15    8    9 ar
  16    8   25 1
  17    9   10 ar
  18    9   26 1
  19   10   27 1
  20   11   12 1
  21   11   16 2
  22   12   13 am
  23   13   14 1
  24   13   17 2
  25   14   15 2
  26   15   16 1
  27   15   18 1
  28   16   28 1
  29   18   19 1
  30   19   29 1
  31   19   30 1
  32   19   31 1

#	End of record

