#	Name: ASD00431248
#	Creating user name:	WinNT
#	Creation time:	15. 06. 2019 18:35

#	Modifying user name:	WinNT
#	Modification time:	15. 06. 2019 18:35

#	Program:	/corina/corina34_cracker 3.40 0067  02.08.2006

@<TRIPOS>MOLECULE
ASD00431248
  16   16    0    0    0
SMALL
NO_CHARGES


@<TRIPOS>ATOM
   1 C1            -0.0187     1.5258     0.0104 C.3     
   2 C2             0.0021    -0.0041     0.0020 C.3     
   3 F3             0.6787    -0.4675     1.1354 F       
   4 F4            -1.3104    -0.4883     0.0119 F       
   5 F5             0.6569    -0.4552    -1.1490 F       
   6 C6             1.3951     2.0474    -0.0003 C.2     
   7 C7             2.0937     2.3967     1.0807 C.2     
   8 C8             3.3769     2.8494     0.8251 C.2     
   9 C9             3.7199     2.8674    -0.4647 C.2     
  10 S10            2.3784     2.2813    -1.4397 S.3     
  11 Br11           5.3944     3.4294    -1.1399 Br      
  12 O12           -0.7098     1.9991    -1.1473 O.3     
  13 H13           -0.5289     1.8773     0.9072 H       
  14 H14            1.6889     2.3317     2.0799 H       
  15 H15            4.0491     3.1644     1.6096 H       
  16 H16           -0.3104     1.7238    -1.9838 H       
@<TRIPOS>BOND
   1    1    2 1
   2    1    6 1
   3    1   12 1
   4    1   13 1
   5    2    3 1
   6    2    4 1
   7    2    5 1
   8    6    7 2
   9    6   10 1
  10    7    8 1
  11    7   14 1
  12    8    9 2
  13    8   15 1
  14    9   10 1
  15    9   11 1
  16   12   16 1

#	End of record

