#	Name: ASD01811650
#	Creating user name:	WinNT
#	Creation time:	15. 06. 2019 19:27

#	Modifying user name:	WinNT
#	Modification time:	15. 06. 2019 19:27

#	Program:	/corina/corina34_cracker 3.40 0067  02.08.2006

@<TRIPOS>MOLECULE
ASD01811650
  48   51    0    0    0
SMALL
NO_CHARGES


@<TRIPOS>ATOM
   1 C1            -0.0167     1.3791     0.0096 C.ar    
   2 C2             0.0021    -0.0041     0.0020 C.ar    
   3 C3             1.2070    -0.6850    -0.0131 C.ar    
   4 C4             2.4004     0.0103    -0.0208 C.ar    
   5 C5             2.3924     1.3972    -0.0133 C.ar    
   6 C6             1.1782     2.0854     0.0020 C.ar    
   7 N7             3.4003     2.3585    -0.0177 N.am    
   8 C8             2.8259     3.5761    -0.0057 C.2     
   9 N9             1.4859     3.4451     0.0064 N.am    
  10 O10            3.4267     4.6344    -0.0054 O.2     
  11 F11           -1.1946     2.0405     0.0188 F       
  12 C12            1.2168    -2.1920    -0.0208 C.3     
  13 C13            4.8404     2.0903    -0.0329 C.3     
  14 C14            5.4636     2.7127    -1.2854 C.3     
  15 C15            6.9764     2.4820    -1.2651 C.3     
  16 N16            7.5494     3.0902    -0.0575 N.3     
  17 C17            7.0007     2.4756     1.1581 C.3     
  18 C18            5.4887     2.7061     1.2101 C.3     
  19 C19            9.0161     3.0092    -0.0725 C.3     
  20 C20            9.5831     3.7605     1.1360 C.3     
  21 C21           11.1059     3.6043     1.1555 C.3     
  22 O22           11.4405     2.2156     1.1951 O.3     
  23 C23           10.9770     1.4713     0.0667 C.3     
  24 C24            9.4490     1.5418     0.0034 C.3     
  25 H25           -0.9270    -0.5547     0.0083 H       
  26 H26            3.3382    -0.5251    -0.0323 H       
  27 H27            0.8443     4.1725     0.0164 H       
  28 H28            1.2092    -2.5501    -1.0503 H       
  29 H29            2.1141    -2.5520     0.4825 H       
  30 H30            0.3343    -2.5637     0.4998 H       
  31 H31            5.0104     1.0137    -0.0381 H       
  32 H32            5.0365     2.2477    -2.1739 H       
  33 H33            5.2590     3.7832    -1.3002 H       
  34 H34            7.1805     1.4113    -1.2643 H       
  35 H35            7.4250     2.9364    -2.1485 H       
  36 H36            7.2047     1.4049     1.1475 H       
  37 H37            7.4670     2.9253     2.0346 H       
  38 H38            5.2845     3.7765     1.2346 H       
  39 H39            5.0795     2.2364     2.1045 H       
  40 H40            9.3966     3.4560    -0.9910 H       
  41 H41            9.3262     4.8172     1.0612 H       
  42 H42            9.1627     3.3464     2.0524 H       
  43 H43           11.5291     4.0547     0.2576 H       
  44 H44           11.5110     4.1011     2.0371 H       
  45 H45           11.3985     1.8939    -0.8455 H       
  46 H46           11.2892     0.4316     0.1639 H       
  47 H47            9.0259     1.0829     0.8969 H       
  48 H48            9.0963     1.0118    -0.8813 H       
@<TRIPOS>BOND
   1    1    2 ar
   2    1    6 ar
   3    1   11 1
   4    2    3 ar
   5    2   25 1
   6    3    4 ar
   7    3   12 1
   8    4    5 ar
   9    4   26 1
  10    5    7 1
  11    5    6 ar
  12    6    9 1
  13    7    8 am
  14    7   13 1
  15    8    9 am
  16    8   10 2
  17    9   27 1
  18   12   28 1
  19   12   29 1
  20   12   30 1
  21   13   14 1
  22   13   18 1
  23   13   31 1
  24   14   15 1
  25   14   32 1
  26   14   33 1
  27   15   16 1
  28   15   34 1
  29   15   35 1
  30   16   17 1
  31   16   19 1
  32   17   18 1
  33   17   36 1
  34   17   37 1
  35   18   38 1
  36   18   39 1
  37   19   20 1
  38   19   24 1
  39   19   40 1
  40   20   21 1
  41   20   41 1
  42   20   42 1
  43   21   22 1
  44   21   43 1
  45   21   44 1
  46   22   23 1
  47   23   24 1
  48   23   45 1
  49   23   46 1
  50   24   47 1
  51   24   48 1

#	End of record

