#	Name: ASD01830040
#	Creating user name:	WinNT
#	Creation time:	15. 06. 2019 19:36

#	Modifying user name:	WinNT
#	Modification time:	15. 06. 2019 19:36

#	Program:	/corina/corina34_cracker 3.40 0067  02.08.2006

@<TRIPOS>MOLECULE
ASD01830040
  81   82    0    0    0
SMALL
NO_CHARGES


@<TRIPOS>ATOM
   1 Cl1            0.0000     0.0000     0.0000 Cl      
   2 H2             0.0000     1.3700     0.0000 H       
   3 Cl3            5.0000     6.3700     5.0000 Cl      
   4 H4             5.0000     7.7400     5.0000 H       
   5 Cl5           10.0000    12.7400    10.0000 Cl      
   6 H6            10.0000    14.1100    10.0000 H       
   7 C7            17.2385    27.1069    16.4157 C.3     
   8 C8            17.2592    25.5770    16.4073 C.3     
   9 H9            17.7573    25.2181    15.5067 H       
  10 C10           15.8165    25.0321    16.4621 C.3     
  11 C11           15.9453    23.7945    17.3886 C.3     
  12 C12           17.0121    24.2737    18.4044 C.3     
  13 H13           16.5509    24.8882    19.1775 H       
  14 C14           17.7253    23.0750    19.0331 C.3     
  15 N15           17.9637    25.0784    17.6027 N.3     
  16 C16           18.5117    26.1892    18.3925 C.3     
  17 C17           19.0048    25.6680    19.7178 C.2     
  18 S18           18.0520    25.5341    21.1940 S.3     
  19 C19           19.4515    24.8786    22.0386 C.2     
  20 N20           19.4760    24.4936    23.3710 N.pl3   
  21 C21           20.6450    23.9884    23.9268 C.ar    
  22 N22           21.7489    23.8748    23.1910 N.ar    
  23 C23           22.8617    23.3974    23.7100 C.ar    
  24 N24           22.9355    23.0135    24.9680 N.ar    
  25 C25           21.8762    23.0946    25.7709 C.ar    
  26 N26           21.9632    22.6878    27.0950 N.3     
  27 C27           20.9527    21.6651    27.3992 C.3     
  28 C28           21.0292    21.3019    28.8840 C.3     
  29 N29           22.3794    20.8137    29.1973 N.3     
  30 C30           22.4715    20.3831    30.5988 C.3     
  31 C31           23.9356    20.1195    30.9562 C.3     
  32 C32           24.0301    19.6777    32.3939 C.2     
  33 O33           25.2262    19.3891    32.9301 O.3     
  34 O34           23.0290    19.5834    33.0639 O.2     
  35 C35           23.3899    21.8364    28.8932 C.3     
  36 C36           23.3134    22.1995    27.4083 C.3     
  37 C37           20.6811    23.5988    25.2634 C.ar    
  38 F38           19.5847    23.7030    26.0458 F       
  39 N39           20.4555    24.8112    21.2202 N.2     
  40 C40           20.2458    25.2198    19.9758 C.2     
  41 C41           21.3084    25.1886    18.9417 C.ar    
  42 C42           20.9841    24.9170    17.6139 C.ar    
  43 C43           21.9781    24.8898    16.6549 C.ar    
  44 Cl44          21.5767    24.5523    15.0000 Cl      
  45 C45           23.2936    25.1318    17.0115 C.ar    
  46 C46           23.6202    25.4014    18.3284 C.ar    
  47 C47           22.6345    25.4367    19.2934 C.ar    
  48 C48           25.0547    25.6628    18.7090 C.3     
  49 F49           25.8622    25.5788    17.5696 F       
  50 F50           25.1641    26.9420    19.2647 F       
  51 F51           25.4696    24.7102    19.6458 F       
  52 H52           18.2611    27.4842    16.4080 H       
  53 H53           16.7113    27.4680    15.5327 H       
  54 H54           16.7283    27.4584    17.3125 H       
  55 H55           15.1420    25.7701    16.8963 H       
  56 H56           15.4782    24.7366    15.4689 H       
  57 H57           15.0000    23.5799    17.8871 H       
  58 H58           16.2978    22.9256    16.8327 H       
  59 H59           18.1929    22.4785    18.2496 H       
  60 H60           18.4894    23.4289    19.7252 H       
  61 H61           17.0018    22.4635    19.5723 H       
  62 H62           19.3399    26.6462    17.8509 H       
  63 H63           17.7334    26.9334    18.5616 H       
  64 H64           18.6770    24.5770    23.9147 H       
  65 H65           23.7393    23.3180    23.0855 H       
  66 H66           19.9607    22.0547    27.1707 H       
  67 H67           21.1422    20.7763    26.7972 H       
  68 H68           20.8129    22.1846    29.4859 H       
  69 H69           20.3001    20.5226    29.1058 H       
  70 H70           22.0746    21.1652    31.2460 H       
  71 H71           21.8936    19.4693    30.7368 H       
  72 H72           24.3325    19.3373    30.3090 H       
  73 H73           24.5135    21.0333    30.8181 H       
  74 H74           25.2365    19.1100    33.8559 H       
  75 H75           23.2005    22.7252    29.4951 H       
  76 H76           24.3819    21.4467    29.1216 H       
  77 H77           23.5297    21.3169    26.8065 H       
  78 H78           24.0425    22.9789    27.1865 H       
  79 H79           19.9580    24.7279    17.3352 H       
  80 H80           24.0678    25.1096    16.2588 H       
  81 H81           22.8904    25.6517    20.3204 H       
@<TRIPOS>BOND
   1    1    2 1
   2    3    4 1
   3    5    6 1
   4    7    8 1
   5    7   52 1
   6    7   53 1
   7    7   54 1
   8    8    9 1
   9    8   15 1
  10    8   10 1
  11   10   11 1
  12   10   55 1
  13   10   56 1
  14   11   12 1
  15   11   57 1
  16   11   58 1
  17   12   13 1
  18   12   14 1
  19   12   15 1
  20   14   59 1
  21   14   60 1
  22   14   61 1
  23   15   16 1
  24   16   17 1
  25   16   62 1
  26   16   63 1
  27   17   40 2
  28   17   18 1
  29   18   19 1
  30   19   20 1
  31   19   39 2
  32   20   21 1
  33   20   64 1
  34   21   37 ar
  35   21   22 ar
  36   22   23 ar
  37   23   24 ar
  38   23   65 1
  39   24   25 ar
  40   25   26 1
  41   25   37 ar
  42   26   36 1
  43   26   27 1
  44   27   28 1
  45   27   66 1
  46   27   67 1
  47   28   29 1
  48   28   68 1
  49   28   69 1
  50   29   30 1
  51   29   35 1
  52   30   31 1
  53   30   70 1
  54   30   71 1
  55   31   32 1
  56   31   72 1
  57   31   73 1
  58   32   33 1
  59   32   34 2
  60   33   74 1
  61   35   36 1
  62   35   75 1
  63   35   76 1
  64   36   77 1
  65   36   78 1
  66   37   38 1
  67   39   40 1
  68   40   41 1
  69   41   47 ar
  70   41   42 ar
  71   42   43 ar
  72   42   79 1
  73   43   44 1
  74   43   45 ar
  75   45   46 ar
  76   45   80 1
  77   46   47 ar
  78   46   48 1
  79   47   81 1
  80   48   49 1
  81   48   50 1
  82   48   51 1

#	End of record

