#	Name: ASD05430611
#	Creating user name:	WinNT
#	Creation time:	15. 06. 2019 21:00

#	Modifying user name:	WinNT
#	Modification time:	15. 06. 2019 21:00

#	Program:	/corina/corina34_cracker 3.40 0067  02.08.2006

@<TRIPOS>MOLECULE
ASD05430611
  16   16    0    0    0
SMALL
NO_CHARGES


@<TRIPOS>ATOM
   1 N1            -0.0210     1.6954     0.0114 N.2     
   2 S2             0.0021    -0.0041     0.0020 S.3     
   3 C3             1.7214    -0.1165    -0.0150 C.2     
   4 N4             2.1429     1.1230    -0.0124 N.2     
   5 C5             1.2284     2.0632     0.0014 C.2     
   6 C6             2.5583    -1.3697    -0.0290 C.3     
   7 C7             2.2533    -2.2006     1.2190 C.3     
   8 C8             2.2303    -2.1881    -1.2794 C.3     
   9 H9             1.5024     3.1079     0.0044 H       
  10 H10            3.6146    -1.1010    -0.0374 H       
  11 H11            1.1970    -2.4693     1.2274 H       
  12 H12            2.8587    -3.1070     1.2089 H       
  13 H13            2.4870    -1.6175     2.1098 H       
  14 H14            2.4475    -1.5962    -2.1684 H       
  15 H15            2.8356    -3.0945    -1.2895 H       
  16 H16            1.1739    -2.4568    -1.2709 H       
@<TRIPOS>BOND
   1    1    2 1
   2    1    5 2
   3    2    3 1
   4    3    4 2
   5    3    6 1
   6    4    5 1
   7    5    9 1
   8    6    7 1
   9    6    8 1
  10    6   10 1
  11    7   11 1
  12    7   12 1
  13    7   13 1
  14    8   14 1
  15    8   15 1
  16    8   16 1

#	End of record

