#	Name: ASD01882265
#	Creating user name:	WinNT
#	Creation time:	15. 06. 2019 19:44

#	Modifying user name:	WinNT
#	Modification time:	15. 06. 2019 19:44

#	Program:	/corina/corina34_cracker 3.40 0067  02.08.2006

@<TRIPOS>MOLECULE
ASD01882265
  35   36    0    0    0
SMALL
NO_CHARGES


@<TRIPOS>ATOM
   1 C1            -0.0167     1.3831     0.0096 C.ar    
   2 C2             0.0021    -0.0041     0.0020 C.ar    
   3 C3             1.2083    -0.6773    -0.0131 C.ar    
   4 C4             2.3962     0.0303    -0.0207 C.ar    
   5 C5             2.3801     1.4128    -0.0131 C.ar    
   6 C6             1.1765     2.0907     0.0021 C.ar    
   7 O7            -1.2021     2.0477     0.0189 O.3     
   8 C8             3.7106    -0.7066    -0.0367 C.3     
   9 C9             4.4965    -0.3206    -1.2914 C.3     
  10 C10            5.8310    -1.0688    -1.3076 C.3     
  11 C11            6.6402    -0.6954    -0.0640 C.3     
  12 C12            5.8543    -1.0814     1.1907 C.3     
  13 C13            4.5198    -0.3332     1.2070 C.3     
  14 C14            7.9747    -1.4435    -0.0803 C.3     
  15 C15            6.9008     0.8123    -0.0588 C.3     
  16 H16           -0.9255    -0.5572     0.0083 H       
  17 H17            1.2235    -1.7571    -0.0187 H       
  18 H18            3.3093     1.9633    -0.0186 H       
  19 H19            1.1645     3.1706     0.0076 H       
  20 H20           -1.5410     2.2352     0.9049 H       
  21 H21            3.5249    -1.7807    -0.0403 H       
  22 H22            3.9200    -0.5866    -2.1774 H       
  23 H23            4.6821     0.7535    -1.2877 H       
  24 H24            5.6453    -2.1429    -1.3113 H       
  25 H25            6.3908    -0.7938    -2.2015 H       
  26 H26            5.6687    -2.1555     1.1870 H       
  27 H27            6.4308    -0.8153     2.0767 H       
  28 H28            4.7055     0.7409     1.2106 H       
  29 H29            3.9600    -0.6082     2.1008 H       
  30 H30            8.5345    -1.1685    -0.9741 H       
  31 H31            8.5512    -1.1775     0.8057 H       
  32 H32            7.7890    -2.5176    -0.0839 H       
  33 H33            5.9501     1.3453    -0.0473 H       
  34 H34            7.4773     1.0783     0.8271 H       
  35 H35            7.4606     1.0873    -0.9527 H       
@<TRIPOS>BOND
   1    1    2 ar
   2    1    6 ar
   3    1    7 1
   4    2    3 ar
   5    2   16 1
   6    3    4 ar
   7    3   17 1
   8    4    5 ar
   9    4    8 1
  10    5    6 ar
  11    5   18 1
  12    6   19 1
  13    7   20 1
  14    8    9 1
  15    8   13 1
  16    8   21 1
  17    9   10 1
  18    9   22 1
  19    9   23 1
  20   10   11 1
  21   10   24 1
  22   10   25 1
  23   11   12 1
  24   11   14 1
  25   11   15 1
  26   12   13 1
  27   12   26 1
  28   12   27 1
  29   13   28 1
  30   13   29 1
  31   14   30 1
  32   14   31 1
  33   14   32 1
  34   15   33 1
  35   15   34 1
  36   15   35 1

#	End of record

