#	Name: ASD03180061
#	Creating user name:	WinNT
#	Creation time:	15. 06. 2019 20:33

#	Modifying user name:	WinNT
#	Modification time:	15. 06. 2019 20:33

#	Program:	/corina/corina34_cracker 3.40 0067  02.08.2006

@<TRIPOS>MOLECULE
ASD03180061
  35   37    0    0    0
SMALL
NO_CHARGES


@<TRIPOS>ATOM
   1 C1             0.4078     1.0190    -1.5063 C.ar    
   2 C2             0.0935    -0.0507    -0.6873 C.ar    
   3 C3             0.9362    -0.3999     0.3535 C.ar    
   4 C4             2.0936     0.3189     0.5773 C.ar    
   5 C5             2.4121     1.3934    -0.2439 C.ar    
   6 C6             1.5644     1.7415    -1.2876 C.ar    
   7 N7             3.5831     2.1234    -0.0195 N.pl3   
   8 N8             4.6099     4.2741    -0.0407 N.2     
   9 C9             4.4017     5.5852    -0.1579 C.2     
  10 C10            3.5673     3.5060    -0.1170 C.2     
  11 S11            2.1291     4.4912    -0.3646 S.3     
  12 C12            3.1192     5.9484    -0.3428 C.2     
  13 C13            5.5022     6.5712    -0.0891 C.2     
  14 S14            5.3396     8.3200    -0.2298 S.3     
  15 C15            7.0278     8.5029    -0.0326 C.2     
  16 N16            7.5903     7.3511     0.1167 N.2     
  17 C17            6.8099     6.2921     0.0986 C.2     
  18 C18            7.7560     9.8223    -0.0338 C.3     
  19 C19            7.3311     4.8883     0.2678 C.3     
  20 C20            3.0102    -0.0613     1.7114 C.3     
  21 Br21          -1.4911    -1.0374    -0.9900 Br      
  22 H22           -0.2497     1.2866    -2.3203 H       
  23 H23            0.6880    -1.2352     0.9915 H       
  24 H24            1.8094     2.5763    -1.9275 H       
  25 H25            4.4066     1.6623     0.2044 H       
  26 H26            2.7586     6.9599    -0.4582 H       
  27 H27            7.8051    10.2111     0.9833 H       
  28 H28            8.7663     9.6793    -0.4173 H       
  29 H29            7.2234    10.5307    -0.6683 H       
  30 H30            7.5869     4.4756    -0.7081 H       
  31 H31            8.2192     4.9041     0.8996 H       
  32 H32            6.5643     4.2697     0.7343 H       
  33 H33            3.7448    -0.7848     1.3579 H       
  34 H34            3.5232     0.8279     2.0777 H       
  35 H35            2.4256    -0.5021     2.5189 H       
@<TRIPOS>BOND
   1    1    2 ar
   2    1    6 ar
   3    1   22 1
   4    2    3 ar
   5    2   21 1
   6    3    4 ar
   7    3   23 1
   8    4    5 ar
   9    4   20 1
  10    5    6 ar
  11    5    7 1
  12    6   24 1
  13    7   10 1
  14    7   25 1
  15    8   10 2
  16    8    9 1
  17    9   12 2
  18    9   13 1
  19   10   11 1
  20   11   12 1
  21   12   26 1
  22   13   14 1
  23   13   17 2
  24   14   15 1
  25   15   16 2
  26   15   18 1
  27   16   17 1
  28   17   19 1
  29   18   27 1
  30   18   28 1
  31   18   29 1
  32   19   30 1
  33   19   31 1
  34   19   32 1
  35   20   33 1
  36   20   34 1
  37   20   35 1

#	End of record

