#	Name: ASD01870037
#	Creating user name:	WinNT
#	Creation time:	15. 06. 2019 19:38

#	Modifying user name:	WinNT
#	Modification time:	15. 06. 2019 19:38

#	Program:	/corina/corina34_cracker 3.40 0067  02.08.2006

@<TRIPOS>MOLECULE
ASD01870037
  40   43    0    0    0
SMALL
NO_CHARGES


@<TRIPOS>ATOM
   1 C1            -0.0162     1.3766     0.0379 C.ar    
   2 C2             0.0017    -0.0034    -0.0271 C.ar    
   3 N3             1.1344    -0.6677    -0.0820 N.ar    
   4 C4             2.3253    -0.0563    -0.0784 C.ar    
   5 C5             2.3957     1.3311    -0.0150 C.ar    
   6 C6             1.1858     2.0707     0.0451 C.ar    
   7 S7             3.9402    -0.7473    -0.1438 S.3     
   8 C8             4.7115     0.8276    -0.0860 C.2     
   9 C9             3.7720     1.8346    -0.0197 C.2     
  10 C10            6.0879     1.1777    -0.0982 C.2     
  11 N11            6.4262     2.4813    -0.0446 N.am    
  12 C12            5.4577     3.4323     0.0197 C.2     
  13 N13            4.1967     3.1267     0.0320 N.2     
  14 N14            1.2042     3.4568     0.1091 N.3     
  15 C15            7.7771     2.8560    -0.0547 C.ar    
  16 O16            6.9481     0.3145    -0.1557 O.2     
  17 C17            0.5005     4.0461    -1.0378 C.3     
  18 C18            0.6353     3.9328     1.3771 C.3     
  19 C19            8.6025     2.5499     1.0255 C.ar    
  20 C20            9.9288     2.9393     0.9720 C.ar    
  21 C21           10.3909     3.6176    -0.1484 C.ar    
  22 N22            9.5792     3.8921    -1.1559 N.ar    
  23 C23            8.3106     3.5312    -1.1426 C.ar    
  24 O24           11.6905     4.0037    -0.2100 O.3     
  25 C25           12.1061     4.6976    -1.3880 C.3     
  26 H26           -0.9548     1.9094     0.0781 H       
  27 H27           -0.9321    -0.5461    -0.0325 H       
  28 H28            5.7458     4.4723     0.0620 H       
  29 H29           -0.5364     3.7101    -1.0396 H       
  30 H30            0.5300     5.1331    -0.9626 H       
  31 H31            0.9857     3.7325    -1.9620 H       
  32 H32            1.2186     3.5367     2.2084 H       
  33 H33            0.6620     5.0222     1.4010 H       
  34 H34           -0.3967     3.5926     1.4627 H       
  35 H35            8.2157     2.0214     1.8844 H       
  36 H36           10.5967     2.7189     1.7916 H       
  37 H37            7.6779     3.7726    -1.9839 H       
  38 H38           11.9479     4.0618    -2.2591 H       
  39 H39           11.5234     5.6125    -1.4954 H       
  40 H40           13.1640     4.9479    -1.3082 H       
@<TRIPOS>BOND
   1    1    2 ar
   2    1    6 ar
   3    1   26 1
   4    2    3 ar
   5    2   27 1
   6    3    4 ar
   7    4    5 ar
   8    4    7 1
   9    5    6 ar
  10    5    9 1
  11    6   14 1
  12    7    8 1
  13    8    9 2
  14    8   10 1
  15    9   13 1
  16   10   11 am
  17   10   16 2
  18   11   12 1
  19   11   15 1
  20   12   13 2
  21   12   28 1
  22   14   17 1
  23   14   18 1
  24   15   19 ar
  25   15   23 ar
  26   17   29 1
  27   17   30 1
  28   17   31 1
  29   18   32 1
  30   18   33 1
  31   18   34 1
  32   19   20 ar
  33   19   35 1
  34   20   21 ar
  35   20   36 1
  36   21   22 ar
  37   21   24 1
  38   22   23 ar
  39   23   37 1
  40   24   25 1
  41   25   38 1
  42   25   39 1
  43   25   40 1

#	End of record

