#	Name: ASD01811748
#	Creating user name:	WinNT
#	Creation time:	15. 06. 2019 19:27

#	Modifying user name:	WinNT
#	Modification time:	15. 06. 2019 19:27

#	Program:	/corina/corina34_cracker 3.40 0067  02.08.2006

@<TRIPOS>MOLECULE
ASD01811748
  54   58    0    0    0
SMALL
NO_CHARGES


@<TRIPOS>ATOM
   1 C1            -0.0167     1.3820     0.0096 C.ar    
   2 C2             0.0021    -0.0041     0.0020 C.ar    
   3 C3             1.2092    -0.6837    -0.0132 C.ar    
   4 C4             2.3994     0.0122    -0.0208 C.ar    
   5 C5             2.3881     1.4088    -0.0132 C.ar    
   6 C6             1.1653     2.0846     0.0021 C.ar    
   7 Cl7           -1.4906    -0.8904     0.0121 Cl      
   8 C8             1.2215    -2.1906    -0.0209 C.3     
   9 C9             0.9925    -2.7020     1.3781 C.ar    
  10 C10           -0.2953    -2.9444     1.8210 C.ar    
  11 C11           -0.5106    -3.4132     3.1012 C.ar    
  12 C12            0.5718    -3.6422     3.9477 C.ar    
  13 C13            1.8667    -3.3964     3.4965 C.ar    
  14 C14            2.0711    -2.9326     2.2127 C.ar    
  15 C15            0.3462    -4.1460     5.3260 C.2     
  16 C16           -0.9011    -4.4367     5.9121 C.2     
  17 N17           -0.6888    -4.8556     7.1315 N.2     
  18 N18            0.6908    -4.8491     7.3703 N.pl3   
  19 C19            1.3098    -4.4173     6.2530 C.2     
  20 C20            1.3486    -5.2479     8.6171 C.3     
  21 C21            3.4703     2.4108    -0.0177 C.2     
  22 N22            2.9562     3.6527    -0.0058 N.am    
  23 C23            1.4920     3.5571     0.0074 C.3     
  24 O24            4.6577     2.1507    -0.0297 O.2     
  25 C25            3.7300     4.8967    -0.0053 C.3     
  26 C26            4.6107     4.9701    -1.2649 C.3     
  27 C27            6.0726     5.0383    -0.7772 C.3     
  28 C28            6.0318     4.4043     0.6354 C.3     
  29 C29            4.6876     4.9228     1.2040 C.3     
  30 O30            4.2908     6.1415    -2.0182 O.3     
  31 H31           -0.9590     1.9097     0.0170 H       
  32 H32            3.3383    -0.5214    -0.0323 H       
  33 H33            0.4308    -2.5570    -0.6756 H       
  34 H34            2.1866    -2.5442    -0.3835 H       
  35 H35           -1.1338    -2.7662     1.1641 H       
  36 H36           -1.5164    -3.6019     3.4462 H       
  37 H37            2.7093    -3.5723     4.1488 H       
  38 H38            3.0745    -2.7417     1.8619 H       
  39 H39           -1.8650    -4.3313     5.4367 H       
  40 H40            2.3750    -4.3006     6.1186 H       
  41 H41            1.5760    -6.3133     8.5833 H       
  42 H42            2.2729    -4.6827     8.7371 H       
  43 H43            0.6864    -5.0442     9.4586 H       
  44 H44            1.0773     4.0360    -0.8796 H       
  45 H45            1.0941     4.0259     0.9074 H       
  46 H46            3.0587     5.7546     0.0315 H       
  47 H47            4.4623     4.0802    -1.8767 H       
  48 H48            6.7218     4.4612    -1.4357 H       
  49 H49            6.4081     6.0739    -0.7210 H       
  50 H50            6.0297     3.3162     0.5705 H       
  51 H51            6.8680     4.7547     1.2404 H       
  52 H52            4.7994     5.9397     1.5801 H       
  53 H53            4.3259     4.2614     1.9913 H       
  54 H54            4.8130     6.2448    -2.8255 H       
@<TRIPOS>BOND
   1    1    2 ar
   2    1    6 ar
   3    1   31 1
   4    2    3 ar
   5    2    7 1
   6    3    4 ar
   7    3    8 1
   8    4    5 ar
   9    4   32 1
  10    5    6 ar
  11    5   21 1
  12    6   23 1
  13    8    9 1
  14    8   33 1
  15    8   34 1
  16    9   10 ar
  17    9   14 ar
  18   10   11 ar
  19   10   35 1
  20   11   12 ar
  21   11   36 1
  22   12   13 ar
  23   12   15 1
  24   13   14 ar
  25   13   37 1
  26   14   38 1
  27   15   16 1
  28   15   19 2
  29   16   17 2
  30   16   39 1
  31   17   18 1
  32   18   19 1
  33   18   20 1
  34   19   40 1
  35   20   41 1
  36   20   42 1
  37   20   43 1
  38   21   22 am
  39   21   24 2
  40   22   23 1
  41   22   25 1
  42   23   44 1
  43   23   45 1
  44   25   26 1
  45   25   29 1
  46   25   46 1
  47   26   27 1
  48   26   30 1
  49   26   47 1
  50   27   28 1
  51   27   48 1
  52   27   49 1
  53   28   29 1
  54   28   50 1
  55   28   51 1
  56   29   52 1
  57   29   53 1
  58   30   54 1

#	End of record

