#	Name: ASD06170039
#	Creating user name:	WinNT
#	Creation time:	15. 06. 2019 21:05

#	Modifying user name:	WinNT
#	Modification time:	15. 06. 2019 21:05

#	Program:	/corina/corina34_cracker 3.40 0067  02.08.2006

@<TRIPOS>MOLECULE
ASD06170039
  62   66    0    0    0
SMALL
NO_CHARGES


@<TRIPOS>ATOM
   1 N1             0.2116     1.1700    -1.0859 N.pl3   
   2 N2             0.0621    -0.0229    -0.3724 N.am    
   3 C3             1.2677    -0.3888     0.1103 C.2     
   4 C4             2.2239     0.6393    -0.3302 C.2     
   5 C5             1.4995     1.5622    -1.0594 C.2     
   6 C6             3.6642     0.6768    -0.0500 C.2     
   7 O7             4.3435     1.5914    -0.4775 O.2     
   8 N8             4.2342    -0.3017     0.6807 N.am    
   9 C9            -1.1365    -0.7200    -0.1892 C.ar    
  10 C10           -1.1889    -2.0879    -0.4238 C.ar    
  11 C11           -3.5079    -2.0990     0.1727 C.ar    
  12 C12           -2.2756    -0.0469     0.2332 C.ar    
  13 C13           -2.3741    -2.7733    -0.2420 C.ar    
  14 C14           -3.4576    -0.7382     0.4131 C.ar    
  15 C15           -4.7995    -2.8500     0.3696 C.3     
  16 O16            1.5157    -1.3751     0.7786 O.2     
  17 C17            2.0568     2.7993    -1.7151 C.3     
  18 C18           -0.8712     1.8841    -1.7668 C.3     
  19 C19            5.6207    -0.3452     0.8273 C.ar    
  20 C20            6.3697     0.8090     0.6272 C.ar    
  21 C21            7.7438     0.7549     0.7756 C.ar    
  22 C22            8.3263    -0.4619     1.1219 C.ar    
  23 C23            7.5165    -1.5712     1.3053 C.ar    
  24 N24            6.2081    -1.4830     1.1605 N.ar    
  25 O25            9.6735    -0.5602     1.2776 O.3     
  26 N26           11.2897     0.7504     4.8384 N.ar    
  27 C27           10.0032     0.8766     4.6114 C.ar    
  28 C28            9.4235     0.4472     3.4245 C.ar    
  29 C29           10.2120    -0.1315     2.4454 C.ar    
  30 C30           11.5961    -0.2624     2.7006 C.ar    
  31 C31           12.4585    -0.8382     1.7563 C.ar    
  32 C32           13.7867    -0.9497     2.0313 C.ar    
  33 C33           14.3056    -0.4963     3.2475 C.ar    
  34 C34           13.4850     0.0733     4.1946 C.ar    
  35 C35           12.1109     0.2004     3.9361 C.ar    
  36 O36           15.6350    -0.6196     3.4977 O.3     
  37 C37           16.4346    -1.2192     2.4764 C.3     
  38 H38            3.6803    -0.9758     1.1047 H       
  39 H39           -0.3039    -2.6150    -0.7483 H       
  40 H40           -2.2369     1.0160     0.4211 H       
  41 H41           -2.4155    -3.8370    -0.4242 H       
  42 H42           -4.3449    -0.2143     0.7366 H       
  43 H43           -4.8582    -3.2089     1.3972 H       
  44 H44           -5.6402    -2.1861     0.1681 H       
  45 H45           -4.8344    -3.6983    -0.3140 H       
  46 H46            2.0102     3.6338    -1.0154 H       
  47 H47            3.0935     2.6230    -2.0017 H       
  48 H48            1.4697     3.0360    -2.6025 H       
  49 H49           -1.3806     2.5348    -1.0561 H       
  50 H50           -0.4574     2.4844    -2.5770 H       
  51 H51           -1.5814     1.1644    -2.1741 H       
  52 H52            5.8848     1.7360     0.3590 H       
  53 H53            8.3509     1.6356     0.6261 H       
  54 H54            7.9612    -2.5180     1.5739 H       
  55 H55            9.3780     1.3265     5.3685 H       
  56 H56            8.3616     0.5641     3.2664 H       
  57 H57           12.0695    -1.1925     0.8132 H       
  58 H58           14.4473    -1.3940     1.3016 H       
  59 H59           13.8958     0.4202     5.1313 H       
  60 H60           17.4737    -1.2567     2.8035 H       
  61 H61           16.0779    -2.2309     2.2828 H       
  62 H62           16.3620    -0.6275     1.5638 H       
@<TRIPOS>BOND
   1    1    2 1
   2    1    5 1
   3    1   18 1
   4    2    3 am
   5    2    9 1
   6    3    4 1
   7    3   16 2
   8    4    5 2
   9    4    6 1
  10    5   17 1
  11    6    7 2
  12    6    8 am
  13    8   19 1
  14    8   38 1
  15    9   10 ar
  16    9   12 ar
  17   10   13 ar
  18   10   39 1
  19   11   13 ar
  20   11   14 ar
  21   11   15 1
  22   12   14 ar
  23   12   40 1
  24   13   41 1
  25   14   42 1
  26   15   43 1
  27   15   44 1
  28   15   45 1
  29   17   46 1
  30   17   47 1
  31   17   48 1
  32   18   49 1
  33   18   50 1
  34   18   51 1
  35   19   20 ar
  36   19   24 ar
  37   20   21 ar
  38   20   52 1
  39   21   22 ar
  40   21   53 1
  41   22   23 ar
  42   22   25 1
  43   23   24 ar
  44   23   54 1
  45   25   29 1
  46   26   27 ar
  47   26   35 ar
  48   27   28 ar
  49   27   55 1
  50   28   29 ar
  51   28   56 1
  52   29   30 ar
  53   30   31 ar
  54   30   35 ar
  55   31   32 ar
  56   31   57 1
  57   32   33 ar
  58   32   58 1
  59   33   34 ar
  60   33   36 1
  61   34   35 ar
  62   34   59 1
  63   36   37 1
  64   37   60 1
  65   37   61 1
  66   37   62 1

#	End of record

