#	Name: ASD01913809
#	Creating user name:	WinNT
#	Creation time:	15. 06. 2019 20:02

#	Modifying user name:	WinNT
#	Modification time:	15. 06. 2019 20:02

#	Program:	/corina/corina34_cracker 3.40 0067  02.08.2006

@<TRIPOS>MOLECULE
ASD01913809
  37   39    0    0    0
SMALL
NO_CHARGES


@<TRIPOS>ATOM
   1 C1            -0.0226     1.4277    -0.0308 C.ar    
   2 C2            -0.0017    -0.0041    -0.0266 C.1     
   3 C3             0.0154    -1.1780    -0.0231 C.1     
   4 C4             0.0364    -2.6098    -0.0189 C.ar    
   5 C5            -1.1344    -3.3383     0.2393 C.ar    
   6 C6             0.1560    -5.3344    -0.0280 C.ar    
   7 N7             1.2432    -4.6189    -0.2739 N.ar    
   8 C8             1.2214    -3.3022    -0.2773 C.ar    
   9 C9            -1.0636    -4.7170     0.2325 C.ar    
  10 N10            0.2331    -6.7253    -0.0369 N.am    
  11 C11           -0.8122    -7.5638    -0.0322 C.2     
  12 O12           -0.4687    -8.8566    -0.0430 O.3     
  13 C13            0.9835    -8.9734    -0.0571 C.3     
  14 C14            1.4751    -7.5130    -0.0594 C.3     
  15 C15            1.4747    -9.7082     1.1918 C.3     
  16 C16            1.4515    -9.6933    -1.3234 C.3     
  17 O17           -1.9664    -7.1844    -0.0187 O.2     
  18 C18            1.1422     2.1538    -0.2877 C.ar    
  19 N19            1.1235     3.4710    -0.2912 N.ar    
  20 C20            0.0173     4.1532    -0.0556 C.ar    
  21 C21           -1.1805     3.5053     0.2079 C.ar    
  22 C22           -1.2144     2.1238     0.2172 C.ar    
  23 F23            0.0531     5.5036    -0.0711 F       
  24 H24           -2.0679    -2.8331     0.4388 H       
  25 H25            2.1282    -2.7527    -0.4822 H       
  26 H26           -1.9450    -5.3098     0.4275 H       
  27 H27            2.0513    -7.3044    -0.9609 H       
  28 H28            2.0685    -7.3073     0.8315 H       
  29 H29            1.0602   -10.7161     1.2069 H       
  30 H30            2.5632    -9.7631     1.1765 H       
  31 H31            1.1507    -9.1687     2.0818 H       
  32 H32            1.1111    -9.1434    -2.2008 H       
  33 H33            2.5401    -9.7484    -1.3289 H       
  34 H34            1.0366   -10.7011    -1.3428 H       
  35 H35            2.0664     1.6309    -0.4848 H       
  36 H36           -2.0782     4.0744     0.3994 H       
  37 H37           -2.1335     1.5938     0.4191 H       
@<TRIPOS>BOND
   1    1    2 1
   2    1   18 ar
   3    1   22 ar
   4    2    3 3
   5    3    4 1
   6    4    5 ar
   7    4    8 ar
   8    5    9 ar
   9    5   24 1
  10    6    7 ar
  11    6   10 1
  12    6    9 ar
  13    7    8 ar
  14    8   25 1
  15    9   26 1
  16   10   11 am
  17   10   14 1
  18   11   12 1
  19   11   17 2
  20   12   13 1
  21   13   14 1
  22   13   15 1
  23   13   16 1
  24   14   27 1
  25   14   28 1
  26   15   29 1
  27   15   30 1
  28   15   31 1
  29   16   32 1
  30   16   33 1
  31   16   34 1
  32   18   19 ar
  33   18   35 1
  34   19   20 ar
  35   20   21 ar
  36   20   23 1
  37   21   22 ar
  38   21   36 1
  39   22   37 1

#	End of record

