#	Name: ASD08390040
#	Creating user name:	WinNT
#	Creation time:	15. 06. 2019 21:19

#	Modifying user name:	WinNT
#	Modification time:	15. 06. 2019 21:19

#	Program:	/corina/corina34_cracker 3.40 0067  02.08.2006

@<TRIPOS>MOLECULE
ASD08390040
  46   48    0    0    0
SMALL
NO_CHARGES


@<TRIPOS>ATOM
   1 C1            -0.1863     1.4695    -0.1202 C.3     
   2 C2             0.0605    -0.0503    -0.1955 C.3     
   3 N3             1.1455     2.0134     0.1938 N.pl3   
   4 C4             2.0278     0.9668     0.2860 C.2     
   5 N5             1.4961    -0.1934     0.0830 N.2     
   6 C6             3.4648     1.1507     0.5921 C.ar    
   7 C7             3.9049     2.3213     1.2093 C.ar    
   8 C8             5.2454     2.4869     1.4919 C.ar    
   9 C9             6.1519     1.4946     1.1644 C.ar    
  10 C10            5.7215     0.3314     0.5516 C.ar    
  11 C11            4.3827     0.1515     0.2695 C.ar    
  12 C12            1.4579     3.3662     0.3676 C.ar    
  13 C13            2.2257     4.0300    -0.5804 C.ar    
  14 C14            0.9959     4.0486     1.4855 C.ar    
  15 C15            1.3051     5.3839     1.6548 C.ar    
  16 C16            2.0751     6.0425     0.7110 C.ar    
  17 C17            2.5324     5.3654    -0.4070 C.ar    
  18 F18            2.3764     7.3487     0.8786 F       
  19 C19           -0.2648    -0.5706    -1.5719 C.2     
  20 O20           -1.3618    -1.0207    -1.8040 O.2     
  21 O21            0.6642    -0.5339    -2.5401 O.3     
  22 C22           -0.6762     1.9947    -1.4450 C.2     
  23 O23            0.0918     2.5453    -2.1979 O.2     
  24 O24           -1.9658     1.8509    -1.7886 O.3     
  25 C25           -3.8604     2.1253    -3.2938 C.3     
  26 C26           -2.3672     2.3810    -3.0794 C.3     
  27 C27           -0.7691    -0.7811     0.8622 C.3     
  28 H28           -0.8949     1.7051     0.6738 H       
  29 H29            3.1982     3.0968     1.4651 H       
  30 H30            5.5875     3.3931     1.9695 H       
  31 H31            7.2000     1.6287     1.3876 H       
  32 H32            6.4340    -0.4394     0.2977 H       
  33 H33            4.0478    -0.7571    -0.2086 H       
  34 H34            2.5828     3.5022    -1.4523 H       
  35 H35            0.3950     3.5354     2.2217 H       
  36 H36            0.9457     5.9150     2.5238 H       
  37 H37            3.1332     5.8808    -1.1418 H       
  38 H38            0.4090    -0.8789    -3.4067 H       
  39 H39           -4.1617     2.5233    -4.2628 H       
  40 H40           -4.0531     1.0529    -3.2655 H       
  41 H41           -4.4301     2.6178    -2.5057 H       
  42 H42           -2.1744     3.4534    -3.1076 H       
  43 H43           -1.7975     1.8886    -3.8675 H       
  44 H44           -1.8279    -0.5856     0.6924 H       
  45 H45           -0.5820    -1.8528     0.7941 H       
  46 H46           -0.4884    -0.4256     1.8536 H       
@<TRIPOS>BOND
   1    1    2 1
   2    1    3 1
   3    1   22 1
   4    1   28 1
   5    2   19 1
   6    2   27 1
   7    2    5 1
   8    3    4 1
   9    3   12 1
  10    4    5 2
  11    4    6 1
  12    6    7 ar
  13    6   11 ar
  14    7    8 ar
  15    7   29 1
  16    8    9 ar
  17    8   30 1
  18    9   10 ar
  19    9   31 1
  20   10   11 ar
  21   10   32 1
  22   11   33 1
  23   12   13 ar
  24   12   14 ar
  25   13   17 ar
  26   13   34 1
  27   14   15 ar
  28   14   35 1
  29   15   16 ar
  30   15   36 1
  31   16   17 ar
  32   16   18 1
  33   17   37 1
  34   19   20 2
  35   19   21 1
  36   21   38 1
  37   22   23 2
  38   22   24 1
  39   24   26 1
  40   25   26 1
  41   25   39 1
  42   25   40 1
  43   25   41 1
  44   26   42 1
  45   26   43 1
  46   27   44 1
  47   27   45 1
  48   27   46 1

#	End of record

