#	Name: ASD01911504
#	Creating user name:	WinNT
#	Creation time:	15. 06. 2019 19:57

#	Modifying user name:	WinNT
#	Modification time:	15. 06. 2019 19:57

#	Program:	/corina/corina34_cracker 3.40 0067  02.08.2006

@<TRIPOS>MOLECULE
ASD01911504
  23   24    0    0    0
SMALL
NO_CHARGES


@<TRIPOS>ATOM
   1 C1            -0.0167     1.3808     0.0096 C.ar    
   2 C2             0.0021    -0.0041     0.0020 C.ar    
   3 C3             1.2166    -0.6646    -0.0131 C.ar    
   4 C4             2.3900     0.1025    -0.0202 C.ar    
   5 C5             2.2853     1.4954    -0.0117 C.ar    
   6 N6             1.1042     2.0778     0.0027 N.ar    
   7 C7             3.6741    -0.5311    -0.0353 C.1     
   8 C8             4.7269    -1.0505    -0.0478 C.1     
   9 C9             6.0110    -1.6841    -0.0629 C.ar    
  10 C10            7.1752    -0.9113    -0.0699 C.ar    
  11 C11            8.4085    -1.5285    -0.0840 C.ar    
  12 C12            8.4947    -2.9096    -0.0913 C.ar    
  13 C13            7.3462    -3.6814    -0.0845 C.ar    
  14 C14            6.1060    -3.0782    -0.0650 C.ar    
  15 Br15          -1.6758     2.2881     0.0224 Br      
  16 H16           -0.9225    -0.5623     0.0082 H       
  17 H17            1.2603    -1.7437    -0.0190 H       
  18 H18            3.1803     2.0998    -0.0170 H       
  19 H19            7.1094     0.1667    -0.0646 H       
  20 H20            9.3091    -0.9325    -0.0898 H       
  21 H21            9.4632    -3.3874    -0.1028 H       
  22 H22            7.4212    -4.7588    -0.0903 H       
  23 H23            5.2105    -3.6819    -0.0556 H       
@<TRIPOS>BOND
   1    1    2 ar
   2    1    6 ar
   3    1   15 1
   4    2    3 ar
   5    2   16 1
   6    3    4 ar
   7    3   17 1
   8    4    5 ar
   9    4    7 1
  10    5    6 ar
  11    5   18 1
  12    7    8 3
  13    8    9 1
  14    9   10 ar
  15    9   14 ar
  16   10   11 ar
  17   10   19 1
  18   11   12 ar
  19   11   20 1
  20   12   13 ar
  21   12   21 1
  22   13   14 ar
  23   13   22 1
  24   14   23 1

#	End of record

