#	Name: ASD06560017
#	Creating user name:	WinNT
#	Creation time:	15. 06. 2019 21:06

#	Modifying user name:	WinNT
#	Modification time:	15. 06. 2019 21:06

#	Program:	/corina/corina34_cracker 3.40 0067  02.08.2006

@<TRIPOS>MOLECULE
ASD06560017
  60   65    0    0    0
SMALL
NO_CHARGES


@<TRIPOS>ATOM
   1 C1             0.2676     1.2910    -0.5010 C.ar    
   2 C2             0.2613    -0.0406    -0.0743 C.ar    
   3 C3             1.4454    -0.6924     0.1137 C.ar    
   4 C4             2.6587    -0.0499    -0.1133 C.ar    
   5 C5             2.6993     1.2479    -0.5298 C.ar    
   6 C6             1.5016     1.9473    -0.7329 C.ar    
   7 N7             1.4874     3.2236    -1.1416 N.ar    
   8 C8             0.3418     3.8545    -1.3236 C.ar    
   9 N9            -0.8401     3.2755    -1.1172 N.ar    
  10 C10           -0.9313     2.0161    -0.7184 C.ar    
  11 N11           -2.1608     1.4265    -0.5146 N.pl3   
  12 C12           -3.3879     2.1929    -0.7449 C.3     
  13 C13           -4.6029     1.3117    -0.4480 C.3     
  14 C14           -4.6219     0.9594     1.0171 C.ar    
  15 C15           -5.8633     2.0583    -0.8016 C.ar    
  16 C16            0.3722     5.2653    -1.7756 C.2     
  17 C17            1.0147     6.2478    -0.9851 C.2     
  18 C18            1.0378     7.5375    -1.4074 C.2     
  19 N19           -0.1913     6.9086    -3.3801 N.pl3   
  20 C20           -0.2134     5.6152    -2.9546 C.2     
  21 C21           -0.6982     7.5239    -4.4935 C.2     
  22 C22            0.4205     7.8795    -2.6291 C.2     
  23 N23            0.2942     9.0328    -3.2692 N.2     
  24 C24           -0.3827     8.8339    -4.4032 C.2     
  25 C25            1.6685     5.8646     0.3175 C.3     
  26 C26           -7.2399     4.0083    -0.6146 C.ar    
  27 C27           -8.1754     3.4281    -1.4506 C.ar    
  28 C28           -7.9579     2.1603    -1.9569 C.ar    
  29 C29           -6.8018     1.4755    -1.6326 C.ar    
  30 C30           -6.0837     3.3235    -0.2903 C.ar    
  31 C31           -4.5575     1.6350     3.3132 C.ar    
  32 C32           -4.5401     1.9582     1.9693 C.ar    
  33 C33           -4.7269    -0.3621     1.4089 C.ar    
  34 C34           -4.7443    -0.6853     2.7528 C.ar    
  35 C35           -4.6563     0.3130     3.7049 C.ar    
  36 H36           -0.6741    -0.5496     0.1055 H       
  37 H37            1.4408    -1.7207     0.4436 H       
  38 H38            3.5823    -0.5873     0.0431 H       
  39 H39            3.6483     1.7337    -0.7024 H       
  40 H40           -2.2133     0.5042    -0.2188 H       
  41 H41           -3.4012     3.0632    -0.0888 H       
  42 H42           -3.4220     2.5207    -1.7839 H       
  43 H43           -4.5430     0.3987    -1.0405 H       
  44 H44            1.5247     8.2962    -0.8126 H       
  45 H45           -0.6987     4.8612    -3.5566 H       
  46 H46           -1.2487     7.0506    -5.2930 H       
  47 H47           -0.6386     9.5948    -5.1257 H       
  48 H48            2.7227     5.6481     0.1450 H       
  49 H49            1.5778     6.6882     1.0257 H       
  50 H50            1.1778     4.9802     0.7240 H       
  51 H51           -7.4098     4.9988    -0.2190 H       
  52 H52           -9.0787     3.9631    -1.7040 H       
  53 H53           -8.6889     1.7070    -2.6100 H       
  54 H54           -6.6315     0.4854    -2.0288 H       
  55 H55           -5.3527     3.7769     0.3629 H       
  56 H56           -4.4932     2.4153     4.0571 H       
  57 H57           -4.4621     2.9909     1.6632 H       
  58 H58           -4.7957    -1.1421     0.6650 H       
  59 H59           -4.8270    -1.7177     3.0589 H       
  60 H60           -4.6699     0.0605     4.7549 H       
@<TRIPOS>BOND
   1    1    2 ar
   2    1    6 ar
   3    1   10 ar
   4    2    3 ar
   5    2   36 1
   6    3    4 ar
   7    3   37 1
   8    4    5 ar
   9    4   38 1
  10    5    6 ar
  11    5   39 1
  12    6    7 ar
  13    7    8 ar
  14    8    9 ar
  15    8   16 1
  16    9   10 ar
  17   10   11 1
  18   11   12 1
  19   11   40 1
  20   12   13 1
  21   12   41 1
  22   12   42 1
  23   13   14 1
  24   13   15 1
  25   13   43 1
  26   14   33 ar
  27   14   32 ar
  28   15   30 ar
  29   15   29 ar
  30   16   17 1
  31   16   20 2
  32   17   18 2
  33   17   25 1
  34   18   22 1
  35   18   44 1
  36   19   20 1
  37   19   22 1
  38   19   21 1
  39   20   45 1
  40   21   24 2
  41   21   46 1
  42   22   23 2
  43   23   24 1
  44   24   47 1
  45   25   48 1
  46   25   49 1
  47   25   50 1
  48   26   27 ar
  49   26   30 ar
  50   26   51 1
  51   27   28 ar
  52   27   52 1
  53   28   29 ar
  54   28   53 1
  55   29   54 1
  56   30   55 1
  57   31   32 ar
  58   31   35 ar
  59   31   56 1
  60   32   57 1
  61   33   34 ar
  62   33   58 1
  63   34   35 ar
  64   34   59 1
  65   35   60 1

#	End of record

