#	Name: ASD01150567
#	Creating user name:	WinNT
#	Creation time:	15. 06. 2019 19:04

#	Modifying user name:	WinNT
#	Modification time:	15. 06. 2019 19:04

#	Program:	/corina/corina34_cracker 3.40 0067  02.08.2006

@<TRIPOS>MOLECULE
ASD01150567
  57   60    0    0    0
SMALL
NO_CHARGES


@<TRIPOS>ATOM
   1 C1             1.9144     1.4015     0.9689 C.ar    
   2 C2             1.9596     0.0212     0.9431 C.ar    
   3 C3             0.4927     0.0046    -0.9572 C.ar    
   4 C4             0.4447     1.3911    -0.9340 C.ar    
   5 C5             1.1564     2.0910     0.0300 C.ar    
   6 N6             1.1107     3.4892     0.0569 N.am    
   7 C7            -0.0778     4.1147    -0.0076 C.2     
   8 N8            -0.1587     5.4581     0.0163 N.am    
   9 C9             0.9638     6.2012     0.1062 C.2     
  10 C10            2.2670     5.5230     0.1772 C.2     
  11 N11            2.3025     4.2167     0.1565 N.2     
  12 O12            0.8990     7.4163     0.1280 O.2     
  13 C13           -1.4667     6.1140    -0.0560 C.3     
  14 O14           -1.0967     3.4557    -0.0894 O.2     
  15 C15           -2.0090     6.3080     1.3366 C.ar    
  16 O16            3.4153     6.2431     0.2679 O.3     
  17 C17            4.6388     5.5076     0.3324 C.3     
  18 C18            1.2519    -0.6785    -0.0156 C.ar    
  19 C19           -1.7233     7.4677     2.0324 C.ar    
  20 C20           -2.2189     7.6500     3.3095 C.ar    
  21 C21           -3.0047     6.6670     3.8946 C.ar    
  22 C22           -3.2910     5.5006     3.1925 C.ar    
  23 C23           -2.7961     5.3275     1.9134 C.ar    
  24 N24           -0.2232    -0.7049    -1.9279 N.am    
  25 C25            0.2667    -1.8622    -2.4148 C.2     
  26 C26           -0.5544    -2.6831    -3.3754 C.3     
  27 O27            1.3685    -2.2429    -2.0798 O.2     
  28 F28           -4.0551     4.5406     3.7580 F       
  29 N29           -3.5073     6.8484     5.1870 N.3     
  30 C30           -2.4130     7.0198     6.1601 C.3     
  31 C31           -2.6439     8.3678     6.8750 C.3     
  32 C32           -4.1616     8.6162     6.6708 C.3     
  33 C33           -4.3855     8.0359     5.2521 C.3     
  34 H34            2.4650     1.9453     1.7222 H       
  35 H35            2.5496    -0.5123     1.6737 H       
  36 H36           -0.1451     1.9245    -1.6648 H       
  37 H37           -1.3607     7.0834    -0.5429 H       
  38 H38           -2.1537     5.4922    -0.6300 H       
  39 H39            5.4766     6.2014     0.4022 H       
  40 H40            4.6284     4.8612     1.2100 H       
  41 H41            4.7448     4.8992    -0.5658 H       
  42 H42            1.2893    -1.7577    -0.0330 H       
  43 H43           -1.1115     8.2326     1.5773 H       
  44 H44           -1.9945     8.5565     3.8520 H       
  45 H45           -3.0177     4.4227     1.3669 H       
  46 H46           -1.0720    -0.3637    -2.2503 H       
  47 H47           -0.7695    -2.0928    -4.2661 H       
  48 H48            0.0022    -3.5768    -3.6575 H       
  49 H49           -1.4900    -2.9736    -2.8974 H       
  50 H50           -2.4318     6.2070     6.8862 H       
  51 H51           -1.4544     7.0345     5.6415 H       
  52 H52           -2.4058     8.2873     7.9356 H       
  53 H53           -2.0575     9.1580     6.4062 H       
  54 H54           -4.7491     8.0740     7.4117 H       
  55 H55           -4.3899     9.6817     6.6973 H       
  56 H56           -4.0961     8.7640     4.4943 H       
  57 H57           -5.4277     7.7448     5.1214 H       
@<TRIPOS>BOND
   1    1    2 ar
   2    1    5 ar
   3    1   34 1
   4    2   18 ar
   5    2   35 1
   6    3    4 ar
   7    3   24 1
   8    3   18 ar
   9    4    5 ar
  10    4   36 1
  11    5    6 1
  12    6    7 am
  13    6   11 1
  14    7    8 am
  15    7   14 2
  16    8    9 am
  17    8   13 1
  18    9   10 1
  19    9   12 2
  20   10   11 2
  21   10   16 1
  22   13   15 1
  23   13   37 1
  24   13   38 1
  25   15   19 ar
  26   15   23 ar
  27   16   17 1
  28   17   39 1
  29   17   40 1
  30   17   41 1
  31   18   42 1
  32   19   20 ar
  33   19   43 1
  34   20   21 ar
  35   20   44 1
  36   21   22 ar
  37   21   29 1
  38   22   23 ar
  39   22   28 1
  40   23   45 1
  41   24   25 am
  42   24   46 1
  43   25   26 1
  44   25   27 2
  45   26   47 1
  46   26   48 1
  47   26   49 1
  48   29   30 1
  49   29   33 1
  50   30   31 1
  51   30   50 1
  52   30   51 1
  53   31   32 1
  54   31   52 1
  55   31   53 1
  56   32   33 1
  57   32   54 1
  58   32   55 1
  59   33   56 1
  60   33   57 1

#	End of record

