#	Name: ASD04590574
#	Creating user name:	WinNT
#	Creation time:	15. 06. 2019 20:51

#	Modifying user name:	WinNT
#	Modification time:	15. 06. 2019 20:51

#	Program:	/corina/corina34_cracker 3.40 0067  02.08.2006

@<TRIPOS>MOLECULE
ASD04590574
  64   69    0    0    0
SMALL
NO_CHARGES


@<TRIPOS>ATOM
   1 N1             2.2726     1.4537    -0.0339 N.ar    
   2 C2             2.4055     0.1335    -0.0507 C.ar    
   3 C3             1.2950    -0.6769    -0.0253 C.ar    
   4 C4             0.0287    -0.0930    -0.0001 C.ar    
   5 C5            -0.0740     1.2838     0.0099 C.ar    
   6 C6             1.0913     2.0435    -0.0050 C.ar    
   7 C7             3.8058    -0.4259    -0.1145 C.3     
   8 N8             3.7746    -1.8681     0.1495 N.am    
   9 C9             2.7308    -2.6581    -0.5242 C.3     
  10 C10            1.3741    -2.1796    -0.0088 C.3     
  11 N11            1.0118     3.4332     0.0112 N.pl3   
  12 C12            2.1669     4.1921     0.1084 C.ar    
  13 N13            2.0755     5.5086     0.0139 N.ar    
  14 C14            3.1615     6.2707     0.1022 C.ar    
  15 C15            4.4083     5.6432     0.2983 C.ar    
  16 C16            4.4546     4.2558     0.3915 C.ar    
  17 N17            3.3251     3.5734     0.2982 N.ar    
  18 N18            3.3634     7.6273     0.0420 N.pl3   
  19 C19            4.7072     7.9234     0.1921 C.ar    
  20 C20            5.4093     6.7160     0.3563 C.ar    
  21 C21            5.4235     9.1132     0.2070 C.ar    
  22 N22            6.7307     9.1065     0.3711 N.ar    
  23 C23            7.4198     7.9900     0.5280 C.ar    
  24 C24            6.7924     6.7623     0.5275 C.ar    
  25 C25            2.3055     8.6216    -0.1542 C.3     
  26 C26            1.2908     8.5185     0.9862 C.3     
  27 C27            0.1860     9.5569     0.7812 C.3     
  28 C28           -0.5174     9.2968    -0.5524 C.3     
  29 C29            0.4974     9.3999    -1.6928 C.3     
  30 C30            1.6022     8.3615    -1.4878 C.3     
  31 C31            4.6671    -2.4479     0.9764 C.2     
  32 C32            5.7238    -1.6113     1.6504 C.3     
  33 O33            4.6197    -3.6429     1.1780 O.2     
  34 O34            6.5426    -2.4479     2.4701 O.3     
  35 C35           -1.6222    10.3352    -0.7574 C.3     
  36 H36           -0.8586    -0.7087     0.0112 H       
  37 H37           -1.0419     1.7626     0.0289 H       
  38 H38            4.2227    -0.2476    -1.1058 H       
  39 H39            4.4274     0.0663     0.6334 H       
  40 H40            2.7906    -2.5056    -1.6018 H       
  41 H41            2.8613    -3.7153    -0.2928 H       
  42 H42            1.2328    -2.5349     1.0120 H       
  43 H43            0.5860    -2.5872    -0.6418 H       
  44 H44            0.1477     3.8702    -0.0456 H       
  45 H45            5.3946     3.7457     0.5413 H       
  46 H46            4.9045    10.0521     0.0827 H       
  47 H47            8.4907     8.0399     0.6585 H       
  48 H48            7.3616     5.8535     0.6558 H       
  49 H49            2.7425     9.6202    -0.1626 H       
  50 H50            0.8538     7.5199     0.9945 H       
  51 H51            1.7918     8.7038     1.9363 H       
  52 H52           -0.5370     9.4834     1.5937 H       
  53 H53            0.6229    10.5554     0.7729 H       
  54 H54           -0.9543     8.2982    -0.5440 H       
  55 H55           -0.0037     9.2146    -2.6429 H       
  56 H56            0.9343    10.3985    -1.7012 H       
  57 H57            2.3251     8.4350    -2.3003 H       
  58 H58            1.1652     7.3629    -1.4795 H       
  59 H59            6.3415    -1.1274     0.8938 H       
  60 H60            5.2460    -0.8519     2.2694 H       
  61 H61            7.2461    -1.9751     2.9356 H       
  62 H62           -1.1853    11.3338    -0.7657 H       
  63 H63           -2.1233    10.1499    -1.7075 H       
  64 H64           -2.3451    10.2617     0.0551 H       
@<TRIPOS>BOND
   1    1    2 ar
   2    1    6 ar
   3    2    3 ar
   4    2    7 1
   5    3    4 ar
   6    3   10 1
   7    4    5 ar
   8    4   36 1
   9    5    6 ar
  10    5   37 1
  11    6   11 1
  12    7    8 1
  13    7   38 1
  14    7   39 1
  15    8    9 1
  16    8   31 am
  17    9   10 1
  18    9   40 1
  19    9   41 1
  20   10   42 1
  21   10   43 1
  22   11   12 1
  23   11   44 1
  24   12   13 ar
  25   12   17 ar
  26   13   14 ar
  27   14   15 ar
  28   14   18 1
  29   15   16 ar
  30   15   20 1
  31   16   17 ar
  32   16   45 1
  33   18   19 1
  34   18   25 1
  35   19   20 ar
  36   19   21 ar
  37   20   24 ar
  38   21   22 ar
  39   21   46 1
  40   22   23 ar
  41   23   24 ar
  42   23   47 1
  43   24   48 1
  44   25   26 1
  45   25   30 1
  46   25   49 1
  47   26   27 1
  48   26   50 1
  49   26   51 1
  50   27   28 1
  51   27   52 1
  52   27   53 1
  53   28   29 1
  54   28   35 1
  55   28   54 1
  56   29   30 1
  57   29   55 1
  58   29   56 1
  59   30   57 1
  60   30   58 1
  61   31   32 1
  62   31   33 2
  63   32   34 1
  64   32   59 1
  65   32   60 1
  66   34   61 1
  67   35   62 1
  68   35   63 1
  69   35   64 1

#	End of record

