#	Name: ASD05233011
#	Creating user name:	WinNT
#	Creation time:	15. 06. 2019 20:57

#	Modifying user name:	WinNT
#	Modification time:	15. 06. 2019 20:57

#	Program:	/corina/corina34_cracker 3.40 0067  02.08.2006

@<TRIPOS>MOLECULE
ASD05233011
  24   25    0    0    0
SMALL
NO_CHARGES


@<TRIPOS>ATOM
   1 C1            -0.0163     1.3480     0.0095 C.2     
   2 C2             0.0021    -0.0041     0.0020 C.2     
   3 C3            -1.3312    -0.4497     0.0123 C.2     
   4 C4            -2.1294     0.6553     0.0259 C.2     
   5 N5            -1.3166     1.7628     0.0300 N.pl3   
   6 C6            -3.6071     0.6608     0.0400 C.ar    
   7 C7            -4.3022     0.1459     1.1411 C.ar    
   8 C8            -5.6869     0.1554     1.1451 C.ar    
   9 C9            -6.3797     0.6715     0.0655 C.ar    
  10 C10           -5.6965     1.1813    -1.0247 C.ar    
  11 C11           -4.3168     1.1842    -1.0412 C.ar    
  12 O12           -3.6206    -0.3615     2.2014 O.3     
  13 C13           -4.3966    -0.8691     3.2887 C.3     
  14 Cl14          -1.8630    -2.1023     0.0080 Cl      
  15 Cl15           1.4176    -1.0089    -0.0177 Cl      
  16 Cl16           1.3784     2.3817     0.0017 Cl      
  17 H17           -1.6166     2.6852     0.0392 H       
  18 H18           -6.2265    -0.2411     1.9924 H       
  19 H19           -7.4597     0.6765     0.0729 H       
  20 H20           -6.2453     1.5826    -1.8639 H       
  21 H21           -3.7870     1.5829    -1.8937 H       
  22 H22           -5.0185    -0.0713     3.6949 H       
  23 H23           -5.0323    -1.6803     2.9338 H       
  24 H24           -3.7311    -1.2428     4.0668 H       
@<TRIPOS>BOND
   1    1    2 2
   2    1   16 1
   3    1    5 1
   4    2    3 1
   5    2   15 1
   6    3    4 2
   7    3   14 1
   8    4    5 1
   9    4    6 1
  10    5   17 1
  11    6    7 ar
  12    6   11 ar
  13    7    8 ar
  14    7   12 1
  15    8    9 ar
  16    8   18 1
  17    9   10 ar
  18    9   19 1
  19   10   11 ar
  20   10   20 1
  21   11   21 1
  22   12   13 1
  23   13   22 1
  24   13   23 1
  25   13   24 1

#	End of record

