#	Name: ASD05940035
#	Creating user name:	WinNT
#	Creation time:	15. 06. 2019 21:04

#	Modifying user name:	WinNT
#	Modification time:	15. 06. 2019 21:04

#	Program:	/corina/corina34_cracker 3.40 0067  02.08.2006

@<TRIPOS>MOLECULE
ASD05940035
  62   65    0    0    0
SMALL
NO_CHARGES


@<TRIPOS>ATOM
   1 N1            -0.0246     1.3274    -0.0937 N.ar    
   2 C2            -0.0012     0.0024    -0.0491 C.ar    
   3 N3             1.1327    -0.6821    -0.0427 N.ar    
   4 C4             2.3037    -0.0561    -0.0816 C.ar    
   5 C5             2.3241     1.3404    -0.1297 C.ar    
   6 C6             1.1018     2.0283    -0.1345 C.ar    
   7 N7             3.4847    -0.7782    -0.0741 N.am    
   8 C8             4.6696    -0.1346    -0.1138 C.2     
   9 C9             4.6918     1.3563    -0.1657 C.2     
  10 N10            3.5241     2.0335    -0.1713 N.am    
  11 N11            1.0708     3.4142    -0.1818 N.pl3   
  12 C12           -1.2863    -0.7371    -0.0046 C.2     
  13 C13            3.4477    -2.2418    -0.0225 C.3     
  14 O14            5.7486     1.9539    -0.2015 O.2     
  15 N15           -2.4467    -0.0643     0.1268 N.am    
  16 C16           -3.7221    -0.7801     0.0415 C.3     
  17 C17           -4.1352    -1.2542     1.4363 C.3     
  18 C18            3.4138    -2.7932    -1.4246 C.ar    
  19 C19            4.5950    -3.0769    -2.0846 C.ar    
  20 C20            2.2017    -3.0206    -2.0486 C.ar    
  21 C21            2.1706    -3.5264    -3.3349 C.ar    
  22 C22            3.3516    -3.8043    -3.9970 C.ar    
  23 C23            4.5639    -3.5826    -3.3705 C.ar    
  24 C24           -5.4672    -2.0017     1.3472 C.3     
  25 O25            5.7087    -0.7629    -0.1071 O.2     
  26 C26            5.8516    -3.8856    -4.0924 C.3     
  27 N27            6.2929    -2.6932    -4.8281 N.3     
  28 C28            7.6603    -2.8704    -5.3503 C.3     
  29 C29            7.5977    -2.6581    -6.8775 C.3     
  30 C30            6.3084    -1.8148    -7.0605 C.3     
  31 C31            5.3894    -2.4060    -5.9626 C.3     
  32 O32           -1.2928    -1.9493    -0.0867 O.2     
  33 C33           -2.4327     1.3827     0.3550 C.3     
  34 H34            3.5246     3.0030    -0.2048 H       
  35 H35            1.8996     3.9171    -0.2120 H       
  36 H36            0.2202     3.8804    -0.1847 H       
  37 H37            4.3358    -2.6098     0.4912 H       
  38 H38            2.5566    -2.5640     0.5163 H       
  39 H39           -4.4870    -0.1134    -0.3570 H       
  40 H40           -3.6120    -1.6415    -0.6173 H       
  41 H41           -3.3704    -1.9208     1.8347 H       
  42 H42           -4.2454    -0.3927     2.0950 H       
  43 H43            5.5421    -2.9031    -1.5955 H       
  44 H44            1.2789    -2.8034    -1.5313 H       
  45 H45            1.2234    -3.7047    -3.8223 H       
  46 H46            3.3272    -4.1998    -5.0017 H       
  47 H47           -5.7615    -2.3394     2.3409 H       
  48 H48           -6.2320    -1.3350     0.9487 H       
  49 H49           -5.3570    -2.8631     0.6885 H       
  50 H50            6.6157    -4.1695    -3.3687 H       
  51 H51            5.6915    -4.7058    -4.7923 H       
  52 H52            8.3272    -2.1348    -4.9006 H       
  53 H53            8.0136    -3.8778    -5.1301 H       
  54 H54            8.4712    -2.1072    -7.2261 H       
  55 H55            7.5106    -3.6128    -7.3961 H       
  56 H56            6.5039    -0.7580    -6.8786 H       
  57 H57            5.8802    -1.9661    -8.0513 H       
  58 H58            4.9193    -3.3241    -6.3151 H       
  59 H59            4.6318    -1.6791    -5.6698 H       
  60 H60           -2.3483     1.9004    -0.6005 H       
  61 H61           -3.3569     1.6815     0.8497 H       
  62 H62           -1.5825     1.6429     0.9855 H       
@<TRIPOS>BOND
   1    1    2 ar
   2    1    6 ar
   3    2    3 ar
   4    2   12 1
   5    3    4 ar
   6    4    5 ar
   7    4    7 1
   8    5    6 ar
   9    5   10 1
  10    6   11 1
  11    7    8 am
  12    7   13 1
  13    8    9 1
  14    8   25 2
  15    9   10 am
  16    9   14 2
  17   10   34 1
  18   11   35 1
  19   11   36 1
  20   12   15 am
  21   12   32 2
  22   13   18 1
  23   13   37 1
  24   13   38 1
  25   15   16 1
  26   15   33 1
  27   16   17 1
  28   16   39 1
  29   16   40 1
  30   17   24 1
  31   17   41 1
  32   17   42 1
  33   18   19 ar
  34   18   20 ar
  35   19   23 ar
  36   19   43 1
  37   20   21 ar
  38   20   44 1
  39   21   22 ar
  40   21   45 1
  41   22   23 ar
  42   22   46 1
  43   23   26 1
  44   24   47 1
  45   24   48 1
  46   24   49 1
  47   26   27 1
  48   26   50 1
  49   26   51 1
  50   27   28 1
  51   27   31 1
  52   28   29 1
  53   28   52 1
  54   28   53 1
  55   29   30 1
  56   29   54 1
  57   29   55 1
  58   30   31 1
  59   30   56 1
  60   30   57 1
  61   31   58 1
  62   31   59 1
  63   33   60 1
  64   33   61 1
  65   33   62 1

#	End of record

