#	Name: ASD01230819
#	Creating user name:	WinNT
#	Creation time:	15. 06. 2019 19:15

#	Modifying user name:	WinNT
#	Modification time:	15. 06. 2019 19:15

#	Program:	/corina/corina34_cracker 3.40 0067  02.08.2006

@<TRIPOS>MOLECULE
ASD01230819
  36   38    0    0    0
SMALL
NO_CHARGES


@<TRIPOS>ATOM
   1 C1            -0.0166     1.3736     0.0096 C.2     
   2 C2             0.0021    -0.0041     0.0020 C.2     
   3 C3            -1.2146    -0.7002     0.0083 C.2     
   4 C4            -2.3849    -0.0394     0.0110 C.2     
   5 N5            -2.4622     1.3312     0.0018 N.pl3   
   6 C6            -1.3174     2.0757     0.0320 C.2     
   7 C7            -3.8098     1.9045    -0.0478 C.3     
   8 C8            -3.8778     3.1900     0.7817 C.3     
   9 S9            -2.6219     4.3261     0.1135 S.o2    
  10 N10           -1.2618     3.3846     0.0820 N.am    
  11 C11            1.2499     2.1409     0.0016 C.ar    
  12 O12           -2.8873     4.6257    -1.2500 O.2     
  13 O13           -2.3207     5.3519     1.0496 O.2     
  14 C14            2.1115     2.0788    -1.1008 C.ar    
  15 C15            3.2812     2.8123    -1.0616 C.ar    
  16 C16            3.5632     3.5819     0.0613 C.ar    
  17 N17            2.7288     3.6192     1.0871 N.ar    
  18 C18            1.5993     2.9399     1.0884 C.ar    
  19 O19            4.7107     4.3047     0.1059 O.3     
  20 C20            4.9461     5.0761     1.2855 C.3     
  21 C21            6.2781     5.8170     1.1529 C.3     
  22 H22            0.9399    -0.5395    -0.0090 H       
  23 H23           -1.2115    -1.7802     0.0107 H       
  24 H24           -3.3019    -0.6099     0.0204 H       
  25 H25           -4.0666     2.1304    -1.0828 H       
  26 H26           -4.5228     1.1820     0.3495 H       
  27 H27           -4.8679     3.6372     0.6933 H       
  28 H28           -3.6607     2.9695     1.8269 H       
  29 H29            1.8674     1.4720    -1.9603 H       
  30 H30            3.9693     2.7879    -1.8937 H       
  31 H31            0.9430     2.9951     1.9444 H       
  32 H32            4.1399     5.7983     1.4142 H       
  33 H33            4.9828     4.4145     2.1510 H       
  34 H34            7.0843     5.0948     1.0242 H       
  35 H35            6.2414     6.4786     0.2874 H       
  36 H36            6.4577     6.4055     2.0527 H       
@<TRIPOS>BOND
   1    1    2 2
   2    1   11 1
   3    1    6 1
   4    2    3 1
   5    2   22 1
   6    3    4 2
   7    3   23 1
   8    4    5 1
   9    4   24 1
  10    5    6 1
  11    5    7 1
  12    6   10 2
  13    7    8 1
  14    7   25 1
  15    7   26 1
  16    8    9 1
  17    8   27 1
  18    8   28 1
  19    9   10 am
  20    9   12 2
  21    9   13 2
  22   11   14 ar
  23   11   18 ar
  24   14   15 ar
  25   14   29 1
  26   15   16 ar
  27   15   30 1
  28   16   17 ar
  29   16   19 1
  30   17   18 ar
  31   18   31 1
  32   19   20 1
  33   20   21 1
  34   20   32 1
  35   20   33 1
  36   21   34 1
  37   21   35 1
  38   21   36 1

#	End of record

