#	Name: ASD01140226
#	Creating user name:	WinNT
#	Creation time:	15. 06. 2019 19:00

#	Modifying user name:	WinNT
#	Modification time:	15. 06. 2019 19:00

#	Program:	/corina/corina34_cracker 3.40 0067  02.08.2006

@<TRIPOS>MOLECULE
ASD01140226
  30   32    0    0    0
SMALL
NO_CHARGES


@<TRIPOS>ATOM
   1 Br1            0.3194    -4.8049     0.2900 Br      
   2 Cl2           -0.4860    -0.2443    -3.4879 Cl      
   3 O3             0.6889     3.2965     0.0559 O.2     
   4 N4            -0.0734     1.2387     0.0682 N.am    
   5 N5             2.5223     0.9539    -1.3941 N.2     
   6 C6             0.9833    -0.8231    -0.7175 C.ar    
   7 C7             1.9022    -0.1446    -1.6450 C.2     
   8 C8             0.0653    -0.1408     0.0780 C.ar    
   9 C9             2.1296    -0.7732    -2.9665 C.ar    
  10 C10            1.0489    -2.2231    -0.6448 C.ar    
  11 C11            2.3612     1.6585    -0.1222 C.3     
  12 C12           -0.7679    -0.8630     0.9350 C.ar    
  13 C13            0.9318     2.1093     0.0069 C.2     
  14 C14            0.2191    -2.9185     0.2048 C.ar    
  15 C15           -0.6909    -2.2366     0.9973 C.ar    
  16 C16            1.0848    -0.8658    -3.8880 C.ar    
  17 C17            3.3898    -1.2702    -3.2980 C.ar    
  18 C18            1.3041    -1.4534    -5.1185 C.ar    
  19 C19            3.5956    -1.8549    -4.5307 C.ar    
  20 C20            2.5553    -1.9491    -5.4379 C.ar    
  21 H21            1.7562    -2.7589    -1.2604 H       
  22 H22           -0.9738     1.5976     0.1051 H       
  23 H23            2.6085     0.9877     0.7006 H       
  24 H24            3.0209     2.5258    -0.0992 H       
  25 H25           -1.4797    -0.3389     1.5556 H       
  26 H26           -1.3403    -2.7833     1.6649 H       
  27 H27            4.2032    -1.1973    -2.5912 H       
  28 H28            0.4971    -1.5262    -5.8326 H       
  29 H29            4.5712    -2.2400    -4.7881 H       
  30 H30            2.7220    -2.4078    -6.4014 H       
@<TRIPOS>BOND
   1    1   14 1
   2    2   16 1
   3    3   13 2
   4    4    8 1
   5    4   13 am
   6    4   22 1
   7    5    7 2
   8    5   11 1
   9    6    7 1
  10    6    8 ar
  11    6   10 ar
  12    7    9 1
  13    8   12 ar
  14    9   16 ar
  15    9   17 ar
  16   10   14 ar
  17   10   21 1
  18   11   13 1
  19   11   23 1
  20   11   24 1
  21   12   15 ar
  22   12   25 1
  23   14   15 ar
  24   15   26 1
  25   16   18 ar
  26   17   19 ar
  27   17   27 1
  28   18   20 ar
  29   18   28 1
  30   19   20 ar
  31   19   29 1
  32   20   30 1

#	End of record

