#	Name: ASD08150105
#	Creating user name:	WinNT
#	Creation time:	15. 06. 2019 21:15

#	Modifying user name:	WinNT
#	Modification time:	15. 06. 2019 21:15

#	Program:	/corina/corina34_cracker 3.40 0067  02.08.2006

@<TRIPOS>MOLECULE
ASD08150105
  52   55    0    0    0
SMALL
NO_CHARGES


@<TRIPOS>ATOM
   1 O1            -0.0161     1.3334     0.0094 O.3     
   2 C2             0.0021    -0.0041     0.0020 C.2     
   3 N3             1.2348    -0.5293    -0.0126 N.am    
   4 C4             2.2183     0.5645    -0.0161 C.3     
   5 C5             1.3508     1.8379    -0.0010 C.3     
   6 O6            -1.0069    -0.6808     0.0084 O.2     
   7 C7             3.0931    -3.5894     0.0537 C.ar    
   8 N8             2.1556    -4.5191    -0.0405 N.ar    
   9 C9             0.8687    -4.1833    -0.1300 C.ar    
  10 C10            0.5191    -2.8335    -0.1233 C.ar    
  11 C11            1.5353    -1.8872    -0.0227 C.ar    
  12 N12            2.7968    -2.2984     0.0630 N.ar    
  13 C13           -2.0648    -7.1227    -0.4259 C.ar    
  14 N14           -0.7932    -7.4881    -0.3387 N.ar    
  15 C15            0.1662    -6.5856    -0.2436 C.ar    
  16 C16           -0.1757    -5.2298    -0.2357 C.ar    
  17 C17           -1.5274    -4.8864    -0.3295 C.ar    
  18 N18           -2.4284    -5.8480    -0.4217 N.ar    
  19 C19            1.6086    -7.0108    -0.1445 C.3     
  20 F20            1.6962    -8.3997    -0.2873 F       
  21 F21            2.3483    -6.3903    -1.1569 F       
  22 F22            2.1202    -6.6371     1.1028 F       
  23 N23            4.4183    -3.9768     0.1507 N.3     
  24 C24            4.5419    -5.4416     0.1295 C.3     
  25 C25            6.0235    -5.8241     0.1785 C.3     
  26 O26            6.6214    -5.2471     1.3426 O.3     
  27 C27            6.5198    -3.8216     1.3955 C.3     
  28 C28            5.0433    -3.4188     1.3588 C.3     
  29 N29           -3.0382    -8.0984    -0.5298 N.pl3   
  30 C30            3.0750     0.5128    -1.2827 C.3     
  31 C31            1.6042     2.6745    -1.2567 C.3     
  32 O32            0.8078     3.8599    -1.2080 O.3     
  33 H33            2.8457     0.5180     0.8740 H       
  34 H34            1.5485     2.4243     0.8964 H       
  35 H35           -0.5148    -2.5295    -0.1947 H       
  36 H36           -1.8308    -3.8499    -0.3269 H       
  37 H37            4.0285    -5.8627     0.9938 H       
  38 H38            4.0955    -5.8313    -0.7854 H       
  39 H39            6.1181    -6.9091     0.2206 H       
  40 H40            6.5261    -5.4486    -0.7129 H       
  41 H41            6.9734    -3.4583     2.3177 H       
  42 H42            7.0368    -3.3878     0.5395 H       
  43 H43            4.9628    -2.3319     1.3413 H       
  44 H44            4.5378    -3.8076     2.2428 H       
  45 H45           -2.7869    -9.0352    -0.5382 H       
  46 H46           -3.9726    -7.8462    -0.5944 H       
  47 H47            2.4317     0.5848    -2.1596 H       
  48 H48            3.7791     1.3449    -1.2792 H       
  49 H49            3.6246    -0.4281    -1.3115 H       
  50 H50            2.6586     2.9469    -1.3051 H       
  51 H51            1.3380     2.0939    -2.1399 H       
  52 H52            0.9179     4.4395    -1.9743 H       
@<TRIPOS>BOND
   1    1    2 1
   2    1    5 1
   3    2    3 am
   4    2    6 2
   5    3    4 1
   6    3   11 1
   7    4    5 1
   8    4   30 1
   9    4   33 1
  10    5   31 1
  11    5   34 1
  12    7    8 ar
  13    7   12 ar
  14    7   23 1
  15    8    9 ar
  16    9   10 ar
  17    9   16 1
  18   10   11 ar
  19   10   35 1
  20   11   12 ar
  21   13   14 ar
  22   13   18 ar
  23   13   29 1
  24   14   15 ar
  25   15   16 ar
  26   15   19 1
  27   16   17 ar
  28   17   18 ar
  29   17   36 1
  30   19   20 1
  31   19   21 1
  32   19   22 1
  33   23   24 1
  34   23   28 1
  35   24   25 1
  36   24   37 1
  37   24   38 1
  38   25   26 1
  39   25   39 1
  40   25   40 1
  41   26   27 1
  42   27   28 1
  43   27   41 1
  44   27   42 1
  45   28   43 1
  46   28   44 1
  47   29   45 1
  48   29   46 1
  49   30   47 1
  50   30   48 1
  51   30   49 1
  52   31   32 1
  53   31   50 1
  54   31   51 1
  55   32   52 1

#	End of record

