#	Name: ASD00431260
#	Creating user name:	WinNT
#	Creation time:	15. 06. 2019 18:35

#	Modifying user name:	WinNT
#	Modification time:	15. 06. 2019 18:35

#	Program:	/corina/corina34_cracker 3.40 0067  02.08.2006

@<TRIPOS>MOLECULE
ASD00431260
  32   33    0    0    0
SMALL
NO_CHARGES


@<TRIPOS>ATOM
   1 S1            -0.0161     1.7031    -0.0247 S.3     
   2 C2            -0.0482     0.0124    -0.2772 C.2     
   3 N3             1.0773    -0.3842    -0.7810 N.2     
   4 C4             1.9951     0.5406    -0.9961 C.2     
   5 C5             1.6263     1.7770    -0.6576 C.2     
   6 O6            -1.0982    -0.7954     0.0087 O.3     
   7 C7            -0.9198    -2.1387    -0.1049 C.ar    
   8 C8            -2.0076    -2.9951     0.0013 C.ar    
   9 C9            -1.8256    -4.3600    -0.1142 C.ar    
  10 C10           -0.5563    -4.8740    -0.3362 C.ar    
  11 C11            0.5299    -4.0183    -0.4418 C.ar    
  12 C12            0.3476    -2.6531    -0.3325 C.ar    
  13 O13           -0.3771    -6.2171    -0.4499 O.3     
  14 C14            0.9566    -6.6766    -0.6779 C.3     
  15 C15            0.9600    -8.2034    -0.7774 C.3     
  16 C16            0.1663    -8.6358    -2.0118 C.3     
  17 C17            2.4010    -8.7036    -0.8966 C.3     
  18 Cl18          -3.5956    -2.3514     0.2796 Cl      
  19 H19            2.9657     0.3142    -1.4121 H       
  20 H20            2.2293     2.6678    -0.7546 H       
  21 H21           -2.6713    -5.0266    -0.0314 H       
  22 H22            1.5180    -4.4189    -0.6139 H       
  23 H23            1.1931    -1.9867    -0.4199 H       
  24 H24            1.3335    -6.2511    -1.6080 H       
  25 H25            1.5947    -6.3650     0.1490 H       
  26 H26            0.5012    -8.6267     0.1162 H       
  27 H27            0.1686    -9.7235    -2.0827 H       
  28 H28           -0.8604    -8.2795    -1.9269 H       
  29 H29            0.6250    -8.2125    -2.9054 H       
  30 H30            2.9665    -8.3955    -0.0172 H       
  31 H31            2.4034    -9.7912    -0.9675 H       
  32 H32            2.8597    -8.2802    -1.7902 H       
@<TRIPOS>BOND
   1    1    2 1
   2    1    5 1
   3    2    3 2
   4    2    6 1
   5    3    4 1
   6    4    5 2
   7    4   19 1
   8    5   20 1
   9    6    7 1
  10    7    8 ar
  11    7   12 ar
  12    8    9 ar
  13    8   18 1
  14    9   10 ar
  15    9   21 1
  16   10   11 ar
  17   10   13 1
  18   11   12 ar
  19   11   22 1
  20   12   23 1
  21   13   14 1
  22   14   15 1
  23   14   24 1
  24   14   25 1
  25   15   16 1
  26   15   17 1
  27   15   26 1
  28   16   27 1
  29   16   28 1
  30   16   29 1
  31   17   30 1
  32   17   31 1
  33   17   32 1

#	End of record

