#	Name: ASD01916812
#	Creating user name:	WinNT
#	Creation time:	15. 06. 2019 20:08

#	Modifying user name:	WinNT
#	Modification time:	15. 06. 2019 20:08

#	Program:	/corina/corina34_cracker 3.40 0067  02.08.2006

@<TRIPOS>MOLECULE
ASD01916812
  65   68    0    0    0
SMALL
NO_CHARGES


@<TRIPOS>ATOM
   1 C1            -0.0167     1.3810     0.0096 C.ar    
   2 C2             0.0021    -0.0041     0.0020 C.ar    
   3 C3             1.2091    -0.6845    -0.0127 C.ar    
   4 C4             2.3978     0.0155    -0.0199 C.ar    
   5 C5             2.3835     1.4091    -0.0128 C.ar    
   6 C6             1.1677     2.0892     0.0021 C.ar    
   7 C7             3.6597     2.1663    -0.0200 C.2     
   8 N8             3.7758     3.5011    -0.0142 N.2     
   9 N9             4.8641     1.6385    -0.0273 N.2     
  10 N10            5.7738     2.7084    -0.0322 N.pl3   
  11 C11            5.0392     3.8351    -0.0234 C.2     
  12 C12            5.5803     5.2416    -0.0251 C.3     
  13 C13            7.2359     2.6155    -0.0408 C.3     
  14 C14            7.7288     2.5848    -1.4646 C.2     
  15 O15            6.9369     2.6356    -2.3818 O.2     
  16 N16            9.0498     2.5010    -1.7187 N.am    
  17 C17            9.5522     2.4698    -3.1007 C.3     
  18 C18           10.6443     3.5349    -3.2458 C.3     
  19 N19           11.6647     3.3297    -2.2091 N.3     
  20 C20           11.1006     3.5047    -0.8641 C.3     
  21 C21           10.0275     2.4445    -0.6214 C.3     
  22 C22           12.7523     4.1729    -2.4067 C.ar    
  23 C23           13.8255     4.1285    -1.5266 C.ar    
  24 N24           12.7570     5.0073    -3.4362 N.ar    
  25 C25           14.9055     4.9772    -1.7368 C.ar    
  26 C26           14.8657     5.8428    -2.8293 C.ar    
  27 C27           13.7679     5.8257    -3.6629 C.ar    
  28 C28            5.7509     5.7207    -1.4681 C.3     
  29 F29           -1.1597    -0.6935     0.0095 F       
  30 C30            6.3003     7.1487    -1.4698 C.3     
  31 C31            1.2233    -2.1914    -0.0205 C.3     
  32 C32            6.4709     7.6277    -2.9129 C.3     
  33 O33           15.9732     4.9642    -0.8987 O.3     
  34 C34           17.0386     5.8706    -1.1911 C.3     
  35 H35           -0.9597     1.9075     0.0170 H       
  36 H36            3.3381    -0.5156    -0.0307 H       
  37 H37            1.1522     3.1691     0.0074 H       
  38 H38            4.8846     5.8992     0.4961 H       
  39 H39            6.5458     5.2601     0.4804 H       
  40 H40            7.6579     3.4802     0.4713 H       
  41 H41            7.5450     1.7038     0.4704 H       
  42 H42            9.9691     1.4861    -3.3165 H       
  43 H43            8.7370     2.6848    -3.7916 H       
  44 H44           11.1045     3.4522    -4.2304 H       
  45 H45           10.2039     4.5254    -3.1316 H       
  46 H46           11.8916     3.4002    -0.1214 H       
  47 H47           10.6538     4.4956    -0.7831 H       
  48 H48            9.5274     2.6402     0.3272 H       
  49 H49           10.4873     1.4565    -0.5991 H       
  50 H50           13.8206     3.4446    -0.6908 H       
  51 H51           15.6878     6.5161    -3.0228 H       
  52 H52           13.7323     6.4941    -4.5104 H       
  53 H53            6.4466     5.0631    -1.9894 H       
  54 H54            4.7854     5.7022    -1.9737 H       
  55 H55            5.6046     7.8062    -0.9486 H       
  56 H56            7.2658     7.1671    -0.9643 H       
  57 H57            1.2171    -2.5496    -1.0499 H       
  58 H58            2.1214    -2.5489     0.4831 H       
  59 H59            0.3416    -2.5658     0.4998 H       
  60 H60            6.8623     8.6450    -2.9141 H       
  61 H61            7.1666     6.9702    -3.4341 H       
  62 H62            5.5054     7.6093    -3.4184 H       
  63 H63           17.4403     5.6521    -2.1805 H       
  64 H64           16.6618     6.8932    -1.1696 H       
  65 H65           17.8263     5.7579    -0.4461 H       
@<TRIPOS>BOND
   1    1    2 ar
   2    1    6 ar
   3    1   35 1
   4    2    3 ar
   5    2   29 1
   6    3    4 ar
   7    3   31 1
   8    4    5 ar
   9    4   36 1
  10    5    6 ar
  11    5    7 1
  12    6   37 1
  13    7    8 1
  14    7    9 2
  15    8   11 2
  16    9   10 1
  17   10   11 1
  18   10   13 1
  19   11   12 1
  20   12   28 1
  21   12   38 1
  22   12   39 1
  23   13   14 1
  24   13   40 1
  25   13   41 1
  26   14   15 2
  27   14   16 am
  28   16   17 1
  29   16   21 1
  30   17   18 1
  31   17   42 1
  32   17   43 1
  33   18   19 1
  34   18   44 1
  35   18   45 1
  36   19   20 1
  37   19   22 1
  38   20   21 1
  39   20   46 1
  40   20   47 1
  41   21   48 1
  42   21   49 1
  43   22   23 ar
  44   22   24 ar
  45   23   25 ar
  46   23   50 1
  47   24   27 ar
  48   25   26 ar
  49   25   33 1
  50   26   27 ar
  51   26   51 1
  52   27   52 1
  53   28   30 1
  54   28   53 1
  55   28   54 1
  56   30   32 1
  57   30   55 1
  58   30   56 1
  59   31   57 1
  60   31   58 1
  61   31   59 1
  62   32   60 1
  63   32   61 1
  64   32   62 1
  65   33   34 1
  66   34   63 1
  67   34   64 1
  68   34   65 1

#	End of record

