#	Name: ASD07300664
#	Creating user name:	WinNT
#	Creation time:	15. 06. 2019 21:10

#	Modifying user name:	WinNT
#	Modification time:	15. 06. 2019 21:10

#	Program:	/corina/corina34_cracker 3.40 0067  02.08.2006

@<TRIPOS>MOLECULE
ASD07300664
  39   41    0    0    0
SMALL
NO_CHARGES


@<TRIPOS>ATOM
   1 C1            -0.0035     1.3932     0.2412 C.2     
   2 C2             0.0021    -0.0041     0.0020 C.2     
   3 N3             1.1907     2.0695     0.2266 N.pl3   
   4 N4             1.1445    -0.6195    -0.2275 N.2     
   5 C5             2.3029     0.0487    -0.2396 C.2     
   6 C6             2.3488     1.3766    -0.0175 C.2     
   7 N7            -0.9638     2.2632     0.4997 N.2     
   8 C8            -0.4279     3.4759     0.6454 C.2     
   9 C9             0.9137     3.3770     0.4800 C.2     
  10 C10            3.5835    -0.6994    -0.5069 C.3     
  11 C11            4.1055    -1.3002     0.7999 C.3     
  12 C12            5.4056    -2.0597     0.5285 C.3     
  13 F13            6.3595    -1.1797     0.0061 F       
  14 F14            5.8828    -2.6090     1.7234 F       
  15 F15            5.1633    -3.0849    -0.3920 F       
  16 N16           -1.1857    -0.7180     0.0100 N.pl3   
  17 C17           -2.4812    -0.0316     0.1360 C.3     
  18 C18           -3.4036    -0.5307    -0.9821 C.3     
  19 O19           -3.4376    -1.9598    -0.9615 O.3     
  20 C20           -2.1740    -2.5790    -1.2141 C.3     
  21 C21           -1.1890    -2.1843    -0.1135 C.3     
  22 C22           -1.1862     4.7425     0.9485 C.3     
  23 Br23           2.1656     4.7904     0.5855 Br      
  24 H24            3.2961     1.8950    -0.0326 H       
  25 H25            3.3948    -1.4982    -1.2241 H       
  26 H26            4.3267    -0.0138    -0.9139 H       
  27 H27            4.2942    -0.5014     1.5171 H       
  28 H28            3.3623    -1.9858     1.2069 H       
  29 H29           -2.9240    -0.2584     1.1058 H       
  30 H30           -2.3373     1.0446     0.0402 H       
  31 H31           -4.4092    -0.1403    -0.8259 H       
  32 H32           -3.0253    -0.1894    -1.9457 H       
  33 H33           -2.2951    -3.6622    -1.2248 H       
  34 H34           -1.7913    -2.2451    -2.1785 H       
  35 H35           -0.1898    -2.5330    -0.3744 H       
  36 H36           -1.4995    -2.6316     0.8308 H       
  37 H37           -1.2533     4.8762     2.0282 H       
  38 H38           -0.6643     5.5924     0.5088 H       
  39 H39           -2.1894     4.6748     0.5277 H       
@<TRIPOS>BOND
   1    1    2 1
   2    1    3 1
   3    1    7 2
   4    2    4 2
   5    2   16 1
   6    3    6 1
   7    3    9 1
   8    4    5 1
   9    5    6 2
  10    5   10 1
  11    6   24 1
  12    7    8 1
  13    8    9 2
  14    8   22 1
  15    9   23 1
  16   10   11 1
  17   10   25 1
  18   10   26 1
  19   11   12 1
  20   11   27 1
  21   11   28 1
  22   12   13 1
  23   12   14 1
  24   12   15 1
  25   16   17 1
  26   16   21 1
  27   17   18 1
  28   17   29 1
  29   17   30 1
  30   18   19 1
  31   18   31 1
  32   18   32 1
  33   19   20 1
  34   20   21 1
  35   20   33 1
  36   20   34 1
  37   21   35 1
  38   21   36 1
  39   22   37 1
  40   22   38 1
  41   22   39 1

#	End of record

