#	Name: ASD05720001
#	Creating user name:	WinNT
#	Creation time:	15. 06. 2019 21:01

#	Modifying user name:	WinNT
#	Modification time:	15. 06. 2019 21:01

#	Program:	/corina/corina34_cracker 3.40 0067  02.08.2006

@<TRIPOS>MOLECULE
ASD05720001
  49   53    0    0    0
SMALL
NO_CHARGES


@<TRIPOS>ATOM
   1 O1            -0.1051     1.1934     0.1307 O.3     
   2 C2             0.0754    -0.1220    -0.0314 C.2     
   3 N3             1.3620    -0.4855    -0.1221 N.am    
   4 C4             2.2047     0.7150    -0.0116 C.3     
   5 C5             1.1895     1.8612     0.1614 C.3     
   6 O6            -0.8433    -0.9149    -0.0903 O.2     
   7 C7             3.0272     0.9134    -1.2863 C.3     
   8 C8             2.0856     1.0574    -2.4836 C.3     
   9 C9             3.8787     2.1775    -1.1523 C.3     
  10 C10            3.5730    -3.2495    -0.6462 C.2     
  11 N11            3.1115    -2.0063    -0.4804 N.2     
  12 C12            1.8243    -1.7838    -0.2921 C.2     
  13 C13            0.9185    -2.8637    -0.2631 C.2     
  14 C14            1.3824    -4.1231    -0.4301 C.2     
  15 N15            2.7211    -4.3217    -0.6236 N.pl3   
  16 N16            3.4811    -5.4799    -0.8217 N.2     
  17 C17            4.7419    -5.1520    -0.9611 C.2     
  18 C18            4.8600    -3.7597    -0.8654 C.2     
  19 C19            6.1095    -2.9747    -0.9733 C.ar    
  20 C20            7.2280    -3.3353    -0.2185 C.ar    
  21 C21            8.3902    -2.6054    -0.3187 C.ar    
  22 C22            8.4514    -1.5038    -1.1759 C.ar    
  23 C23            7.3326    -1.1436    -1.9312 C.ar    
  24 C24            6.1721    -1.8768    -1.8342 C.ar    
  25 C25            9.6990    -0.7196    -1.2833 C.2     
  26 N26           10.8154    -0.9550    -0.6291 N.2     
  27 C27           11.7314    -0.0434    -0.9768 C.2     
  28 C28           11.1785     0.7936    -1.8776 C.2     
  29 N29            9.8922     0.3695    -2.0828 N.pl3   
  30 H30            2.8567     0.6463     0.8592 H       
  31 H31            1.2723     2.5723    -0.6605 H       
  32 H32            1.3383     2.3623     1.1179 H       
  33 H33            3.6774     0.0517    -1.4370 H       
  34 H34            1.3799     1.8665    -2.2956 H       
  35 H35            2.6667     1.2827    -3.3779 H       
  36 H36            1.5394     0.1256    -2.6304 H       
  37 H37            4.6090     2.0407    -0.3547 H       
  38 H38            4.3979     2.3671    -2.0917 H       
  39 H39            3.2359     3.0251    -0.9149 H       
  40 H40           -0.1357    -2.6870    -0.1086 H       
  41 H41            0.7030    -4.9624    -0.4104 H       
  42 H42            5.5561    -5.8419    -1.1270 H       
  43 H43            7.1806    -4.1868     0.4441 H       
  44 H44            9.2548    -2.8838     0.2655 H       
  45 H45            7.3797    -0.2921    -2.5938 H       
  46 H46            5.3084    -1.6006    -2.4209 H       
  47 H47           12.7419     0.0125    -0.5996 H       
  48 H48           11.6601     1.6362    -2.3514 H       
  49 H49            9.2415     0.7687    -2.6812 H       
@<TRIPOS>BOND
   1    1    2 1
   2    1    5 1
   3    2    3 am
   4    2    6 2
   5    3    4 1
   6    3   12 1
   7    4    5 1
   8    4    7 1
   9    4   30 1
  10    5   31 1
  11    5   32 1
  12    7    8 1
  13    7    9 1
  14    7   33 1
  15    8   34 1
  16    8   35 1
  17    8   36 1
  18    9   37 1
  19    9   38 1
  20    9   39 1
  21   10   11 1
  22   10   15 1
  23   10   18 2
  24   11   12 2
  25   12   13 1
  26   13   14 2
  27   13   40 1
  28   14   15 1
  29   14   41 1
  30   15   16 1
  31   16   17 2
  32   17   18 1
  33   17   42 1
  34   18   19 1
  35   19   20 ar
  36   19   24 ar
  37   20   21 ar
  38   20   43 1
  39   21   22 ar
  40   21   44 1
  41   22   23 ar
  42   22   25 1
  43   23   24 ar
  44   23   45 1
  45   24   46 1
  46   25   26 2
  47   25   29 1
  48   26   27 1
  49   27   28 2
  50   27   47 1
  51   28   29 1
  52   28   48 1
  53   29   49 1

#	End of record

