#	Name: ASD03092361
#	Creating user name:	WinNT
#	Creation time:	15. 06. 2019 20:32

#	Modifying user name:	WinNT
#	Modification time:	15. 06. 2019 20:32

#	Program:	/corina/corina34_cracker 3.40 0067  02.08.2006

@<TRIPOS>MOLECULE
ASD03092361
  52   54    0    0    0
SMALL
NO_CHARGES


@<TRIPOS>ATOM
   1 C1             0.3377     2.0151     0.1445 C.2     
   2 C2             0.5539     0.5259     0.2242 C.3     
   3 C3             2.0546     0.2275     0.2208 C.3     
   4 C4             2.2741    -1.2845     0.3017 C.3     
   5 O5             1.2900     2.7641     0.0903 O.2     
   6 N6            -0.9141     2.5144     0.1279 N.am    
   7 C7            -1.1243     3.9621     0.0503 C.3     
   8 S8            -4.9831     4.7577    -0.6387 S.3     
   9 C9            -4.5797     4.6090     1.0158 C.2     
  10 N10           -3.3133     4.3514     1.1495 N.2     
  11 C11           -2.6025     4.2556     0.0469 C.2     
  12 C12           -3.3088     4.4431    -1.0876 C.2     
  13 N13           -5.4735     4.7440     2.0625 N.3     
  14 C14           -6.8265     5.0336     1.5658 C.3     
  15 C15           -7.7925     5.1158     2.7507 C.3     
  16 O16           -7.3289     6.1089     3.6693 O.3     
  17 C17           -6.0143     5.8579     4.1735 C.3     
  18 C18           -5.0303     5.7833     3.0031 C.3     
  19 C19           -2.5480     5.3151    -4.6604 C.ar    
  20 C20           -3.0699     5.4020    -3.3880 C.ar    
  21 C21           -2.7732     4.3929    -2.4620 C.ar    
  22 C22           -1.9534     3.3351    -2.8774 C.ar    
  23 C23           -1.4751     3.3289    -4.1698 C.ar    
  24 N24           -1.7794     4.3004    -5.0103 N.ar    
  25 C25           -0.5920     2.1977    -4.6298 C.3     
  26 C26           -2.8640     6.3901    -5.6682 C.3     
  27 H27            0.1095     0.1428     1.1428 H       
  28 H28            0.0858     0.0443    -0.6343 H       
  29 H29            2.4991     0.6105    -0.6978 H       
  30 H30            2.5227     0.7091     1.0793 H       
  31 H31            1.8296    -1.6675     1.2203 H       
  32 H32            1.8060    -1.7661    -0.5567 H       
  33 H33            3.3432    -1.4970     0.2993 H       
  34 H34           -1.6758     1.9151     0.1672 H       
  35 H35           -0.6604     4.4433     0.9114 H       
  36 H36           -0.6756     4.3459    -0.8659 H       
  37 H37           -6.8228     5.9844     1.0327 H       
  38 H38           -7.1446     4.2387     0.8913 H       
  39 H39           -8.7857     5.3867     2.3925 H       
  40 H40           -7.8369     4.1488     3.2518 H       
  41 H41           -5.7214     6.6655     4.8444 H       
  42 H42           -6.0069     4.9125     4.7160 H       
  43 H43           -4.0371     5.5355     3.3777 H       
  44 H44           -4.9978     6.7460     2.4929 H       
  45 H45           -3.6976     6.2353    -3.1086 H       
  46 H46           -1.7001     2.5372    -2.1952 H       
  47 H47           -1.2090     1.4010    -5.0454 H       
  48 H48            0.0954     2.5609    -5.3938 H       
  49 H49           -0.0236     1.8129    -3.7830 H       
  50 H50           -2.1123     7.1771    -5.6076 H       
  51 H51           -2.8608     5.9610    -6.6701 H       
  52 H52           -3.8473     6.8096    -5.4556 H       
@<TRIPOS>BOND
   1    1    2 1
   2    1    5 2
   3    1    6 am
   4    2    3 1
   5    2   27 1
   6    2   28 1
   7    3    4 1
   8    3   29 1
   9    3   30 1
  10    4   31 1
  11    4   32 1
  12    4   33 1
  13    6    7 1
  14    6   34 1
  15    7   11 1
  16    7   35 1
  17    7   36 1
  18    8    9 1
  19    8   12 1
  20    9   10 2
  21    9   13 1
  22   10   11 1
  23   11   12 2
  24   12   21 1
  25   13   14 1
  26   13   18 1
  27   14   15 1
  28   14   37 1
  29   14   38 1
  30   15   16 1
  31   15   39 1
  32   15   40 1
  33   16   17 1
  34   17   18 1
  35   17   41 1
  36   17   42 1
  37   18   43 1
  38   18   44 1
  39   19   20 ar
  40   19   24 ar
  41   19   26 1
  42   20   21 ar
  43   20   45 1
  44   21   22 ar
  45   22   23 ar
  46   22   46 1
  47   23   24 ar
  48   23   25 1
  49   25   47 1
  50   25   48 1
  51   25   49 1
  52   26   50 1
  53   26   51 1
  54   26   52 1

#	End of record

