#	Name: ASD01883389
#	Creating user name:	WinNT
#	Creation time:	15. 06. 2019 19:46

#	Modifying user name:	WinNT
#	Modification time:	15. 06. 2019 19:46

#	Program:	/corina/corina34_cracker 3.40 0067  02.08.2006

@<TRIPOS>MOLECULE
ASD01883389
  53   56    0    0    0
SMALL
NO_CHARGES


@<TRIPOS>ATOM
   1 N1             0.0021     1.3082    -0.0152 N.am    
   2 C2            -0.7518     1.3829     1.0973 C.2     
   3 C3            -1.9997     0.7182     1.1499 C.2     
   4 C4            -2.4239    -0.0108     0.0261 C.2     
   5 C5            -1.5912    -0.0513    -1.1076 C.2     
   6 C6            -0.4117     0.6073    -1.1028 C.2     
   7 O7            -0.3596     2.0222     2.0588 O.2     
   8 C8            -2.8143     0.7866     2.3257 C.1     
   9 N9            -3.4606     0.8409     3.2584 N.1     
  10 C10            1.2919     2.0017    -0.0562 C.3     
  11 N11           -3.6309    -0.6732     0.0341 N.pl3   
  12 C12            2.3909     1.0649     0.4490 C.3     
  13 C13            3.8350     1.5648     0.3740 C.3     
  14 C14            3.1289     1.4665     1.7277 C.3     
  15 C15           -4.8964     0.0654     0.1606 C.3     
  16 C16           -5.8354    -0.3813    -0.9650 C.3     
  17 N17           -5.9647    -1.8444    -0.9388 N.3     
  18 C18           -4.6754    -2.4981    -1.1997 C.3     
  19 C19           -3.6892    -2.1376    -0.0898 C.3     
  20 C20           -6.9877    -2.2996    -1.8897 C.3     
  21 C21           -6.9236    -3.7998    -2.0165 C.ar    
  22 C22           -7.6792    -4.5967    -1.1778 C.ar    
  23 C23           -7.6201    -5.9753    -1.2945 C.ar    
  24 C24           -6.8039    -6.5535    -2.2516 C.ar    
  25 C25           -6.0490    -5.7544    -3.0894 C.ar    
  26 C26           -6.1131    -4.3783    -2.9757 C.ar    
  27 F27           -8.3581    -6.7554    -0.4748 F       
  28 C28           -5.1603    -6.3834    -4.1314 C.3     
  29 F29           -5.2683    -7.7763    -4.0570 F       
  30 F30           -5.5548    -5.9524    -5.4025 F       
  31 F31           -3.8330    -6.0056    -3.9019 F       
  32 H32           -1.8967    -0.6057    -1.9826 H       
  33 H33            0.2190     0.5690    -1.9787 H       
  34 H34            1.5116     2.3000    -1.0814 H       
  35 H35            1.2488     2.8869     0.5784 H       
  36 H36            2.2169     0.0021     0.2806 H       
  37 H37            4.6110     0.8309     0.1566 H       
  38 H38            4.0020     2.5611    -0.0353 H       
  39 H39            2.8313     2.3981     2.2090 H       
  40 H40            3.4403     0.6678     2.4010 H       
  41 H41           -5.3527    -0.1526     1.1262 H       
  42 H42           -4.7061     1.1353     0.0757 H       
  43 H43           -6.8159     0.0731    -0.8226 H       
  44 H44           -5.4256    -0.0696    -1.9257 H       
  45 H45           -4.8145    -3.5788    -1.2275 H       
  46 H46           -4.2817    -2.1568    -2.1571 H       
  47 H47           -2.7011    -2.5253    -0.3378 H       
  48 H48           -4.0273    -2.5657     0.8538 H       
  49 H49           -7.9742    -2.0072    -1.5297 H       
  50 H50           -6.8067    -1.8446    -2.8635 H       
  51 H51           -8.3154    -4.1446    -0.4313 H       
  52 H52           -6.7567    -7.6286    -2.3433 H       
  53 H53           -5.5231    -3.7546    -3.6310 H       
@<TRIPOS>BOND
   1    1    2 am
   2    1   10 1
   3    1    6 1
   4    2    3 1
   5    2    7 2
   6    3    4 2
   7    3    8 1
   8    4    5 1
   9    4   11 1
  10    5    6 2
  11    5   32 1
  12    6   33 1
  13    8    9 3
  14   10   12 1
  15   10   34 1
  16   10   35 1
  17   11   15 1
  18   11   19 1
  19   12   13 1
  20   12   14 1
  21   12   36 1
  22   13   14 1
  23   13   37 1
  24   13   38 1
  25   14   39 1
  26   14   40 1
  27   15   16 1
  28   15   41 1
  29   15   42 1
  30   16   17 1
  31   16   43 1
  32   16   44 1
  33   17   18 1
  34   17   20 1
  35   18   19 1
  36   18   45 1
  37   18   46 1
  38   19   47 1
  39   19   48 1
  40   20   21 1
  41   20   49 1
  42   20   50 1
  43   21   22 ar
  44   21   26 ar
  45   22   23 ar
  46   22   51 1
  47   23   24 ar
  48   23   27 1
  49   24   25 ar
  50   24   52 1
  51   25   26 ar
  52   25   28 1
  53   26   53 1
  54   28   29 1
  55   28   30 1
  56   28   31 1

#	End of record

