#	Name: ASD05740018
#	Creating user name:	WinNT
#	Creation time:	15. 06. 2019 21:02

#	Modifying user name:	WinNT
#	Modification time:	15. 06. 2019 21:02

#	Program:	/corina/corina34_cracker 3.40 0067  02.08.2006

@<TRIPOS>MOLECULE
ASD05740018
  48   51    0    0    0
SMALL
NO_CHARGES


@<TRIPOS>ATOM
   1 C1             2.0245     1.8029    -0.5932 C.2     
   2 C2             0.9677     3.8007    -1.1416 C.ar    
   3 C3            -0.2905     4.1342    -0.6447 C.ar    
   4 C4            -0.5899     5.4284    -0.3303 C.ar    
   5 C5             0.3731     6.4285    -0.5095 C.ar    
   6 C6             1.6475     6.0956    -1.0055 C.ar    
   7 C7             1.9362     4.7762    -1.3164 C.ar    
   8 C8             0.0724     7.8271    -0.1898 C.2     
   9 C9             0.9503     8.7771    -0.6403 C.2     
  10 C10            2.1153     8.3099    -1.4041 C.2     
  11 O11            2.5812     7.0636    -1.1657 O.3     
  12 S12            0.6926    10.4900    -0.3174 S.3     
  13 C13            2.0722    10.9148     0.6930 C.ar    
  14 C14            2.9659     9.9353     1.1334 C.ar    
  15 O15            2.6476     9.0273    -2.2315 O.2     
  16 C16            3.4026    12.5281     1.8651 C.ar    
  17 N17            4.2217    11.5659     2.2642 N.ar    
  18 C18            4.0335    10.3040     1.9216 C.ar    
  19 O19            1.2489     2.5090    -1.4516 O.3     
  20 N20            3.6438    13.8432     2.2526 N.am    
  21 S21            4.9491    14.1989     3.2075 S.o2    
  22 O22            4.8598    15.6019     3.4147 O.2     
  23 O23            4.8460    13.2898     4.2948 O.2     
  24 C24           -1.1530     8.2045     0.6021 C.3     
  25 N25            2.5797     2.2851     0.4732 N.2     
  26 S26            2.4064     0.1444    -0.7563 S.3     
  27 C27            3.3627     0.2084     0.7219 C.2     
  28 C28            3.3008     1.4520     1.2008 C.2     
  29 C29            6.3868    13.7980     2.1766 C.3     
  30 C30            7.6706    14.0874     2.9571 C.3     
  31 C31            2.3026    12.2366     1.0679 C.ar    
  32 F32            1.4696    13.2199     0.6622 F       
  33 H33           -1.0344     3.3633    -0.5077 H       
  34 H34           -1.5668     5.6801     0.0552 H       
  35 H35            2.9099     4.5105    -1.7009 H       
  36 H36            2.8210     8.9007     0.8593 H       
  37 H37            4.7268     9.5504     2.2648 H       
  38 H38            3.0473    14.5513     1.9632 H       
  39 H39           -0.9344     8.1300     1.6673 H       
  40 H40           -1.4405     9.2278     0.3609 H       
  41 H41           -1.9703     7.5285     0.3508 H       
  42 H42            3.8992    -0.6167     1.1666 H       
  43 H43            3.8064     1.7550     2.1058 H       
  44 H44            6.3566    12.7427     1.9055 H       
  45 H45            6.3665    14.4062     1.2723 H       
  46 H46            7.7009    15.1427     3.2282 H       
  47 H47            7.6910    13.4792     3.8614 H       
  48 H48            8.5345    13.8465     2.3376 H       
@<TRIPOS>BOND
   1    1   26 1
   2    1   19 1
   3    1   25 2
   4    2    3 ar
   5    2   19 1
   6    2    7 ar
   7    3    4 ar
   8    3   33 1
   9    4    5 ar
  10    4   34 1
  11    5    6 ar
  12    5    8 1
  13    6    7 ar
  14    6   11 1
  15    7   35 1
  16    8    9 2
  17    8   24 1
  18    9   10 1
  19    9   12 1
  20   10   11 1
  21   10   15 2
  22   12   13 1
  23   13   14 ar
  24   13   31 ar
  25   14   18 ar
  26   14   36 1
  27   16   17 ar
  28   16   20 1
  29   16   31 ar
  30   17   18 ar
  31   18   37 1
  32   20   21 am
  33   20   38 1
  34   21   22 2
  35   21   23 2
  36   21   29 1
  37   24   39 1
  38   24   40 1
  39   24   41 1
  40   25   28 1
  41   26   27 1
  42   27   28 2
  43   27   42 1
  44   28   43 1
  45   29   30 1
  46   29   44 1
  47   29   45 1
  48   30   46 1
  49   30   47 1
  50   30   48 1
  51   31   32 1

#	End of record

