#	Name: ASD05740238
#	Creating user name:	WinNT
#	Creation time:	15. 06. 2019 21:03

#	Modifying user name:	WinNT
#	Modification time:	15. 06. 2019 21:03

#	Program:	/corina/corina34_cracker 3.40 0067  02.08.2006

@<TRIPOS>MOLECULE
ASD05740238
  58   61    0    0    0
SMALL
NO_CHARGES


@<TRIPOS>ATOM
   1 C1            -0.0042     1.4001     0.3272 C.ar    
   2 C2             0.0044     0.0175     0.3095 C.ar    
   3 C3             1.2316    -0.6395     0.1757 C.ar    
   4 N4             2.3431     0.0857     0.0705 N.ar    
   5 C5             2.2895     1.4083     0.0921 C.ar    
   6 N6             1.1405     2.0566     0.2178 N.ar    
   7 C7             2.3749     4.1450    -0.7948 C.ar    
   8 C8             3.4192     3.5299    -0.1169 C.ar    
   9 N9             3.4644     2.1331    -0.0191 N.pl3   
  10 C10            2.3306     5.5216    -0.8916 C.ar    
  11 C11            3.3303     6.2911    -0.3110 C.ar    
  12 C12            4.3748     5.6759     0.3665 C.ar    
  13 C13            4.4188     4.2993     0.4636 C.ar    
  14 N14            3.2856     7.6864    -0.4096 N.3     
  15 C15            4.4345     8.2995     0.2714 C.3     
  16 C16            4.3915     9.8166     0.0732 C.3     
  17 N17            3.1262    10.3418     0.6049 N.3     
  18 C18            1.9773     9.7287    -0.0761 C.3     
  19 C19            2.0202     8.2117     0.1221 C.3     
  20 C20            3.0793    11.8064     0.5015 C.3     
  21 C21            1.2938    -2.1198     0.1518 C.ar    
  22 C22            2.5237    -2.7767     0.0176 C.ar    
  23 C23            2.5324    -4.1564     0.0009 C.ar    
  24 C24            1.3274    -4.8456     0.1170 C.ar    
  25 N25            0.1809    -4.1936     0.2425 N.ar    
  26 C26            0.1310    -2.8772     0.2681 C.ar    
  27 N27            1.3278    -6.2330     0.1006 N.pl3   
  28 C28            2.5901    -6.9636    -0.0382 C.3     
  29 C29            2.3124    -8.4681    -0.0273 C.3     
  30 N30            3.5781    -9.2006    -0.1665 N.3     
  31 H31           -0.9351     1.9389     0.4248 H       
  32 H32           -0.9153    -0.5419     0.3974 H       
  33 H33            1.5999     3.5464    -1.2501 H       
  34 H34            4.3186     1.6736    -0.0293 H       
  35 H35            1.5186     6.0000    -1.4192 H       
  36 H36            5.1525     6.2743     0.8177 H       
  37 H37            5.2310     3.8209     0.9909 H       
  38 H38            4.3907     8.0705     1.3362 H       
  39 H39            5.3594     7.9040    -0.1482 H       
  40 H40            5.2267    10.2761     0.6018 H       
  41 H41            4.4627    10.0466    -0.9898 H       
  42 H42            1.0523    10.1242     0.3435 H       
  43 H43            2.0210     9.9577    -1.1409 H       
  44 H44            1.1850     7.7521    -0.4065 H       
  45 H45            1.9490     7.9817     1.1851 H       
  46 H46            3.1675    12.0998    -0.5446 H       
  47 H47            2.1325    12.1688     0.9019 H       
  48 H48            3.9031    12.2374     1.0704 H       
  49 H49            3.4430    -2.2168    -0.0709 H       
  50 H50            3.4625    -4.6957    -0.1014 H       
  51 H51           -0.8222    -2.3804     0.3721 H       
  52 H52            0.4923    -6.7193     0.1810 H       
  53 H53            3.0673    -6.6889    -0.9789 H       
  54 H54            3.2498    -6.7099     0.7915 H       
  55 H55            1.8352    -8.7428     0.9134 H       
  56 H56            1.6527    -8.7218    -0.8571 H       
  57 H57            4.2314    -8.9341     0.5548 H       
  58 H58            3.4214   -10.1974    -0.1621 H       
@<TRIPOS>BOND
   1    1    2 ar
   2    1    6 ar
   3    1   31 1
   4    2    3 ar
   5    2   32 1
   6    3    4 ar
   7    3   21 1
   8    4    5 ar
   9    5    6 ar
  10    5    9 1
  11    7    8 ar
  12    7   10 ar
  13    7   33 1
  14    8    9 1
  15    8   13 ar
  16    9   34 1
  17   10   11 ar
  18   10   35 1
  19   11   12 ar
  20   11   14 1
  21   12   13 ar
  22   12   36 1
  23   13   37 1
  24   14   15 1
  25   14   19 1
  26   15   16 1
  27   15   38 1
  28   15   39 1
  29   16   17 1
  30   16   40 1
  31   16   41 1
  32   17   18 1
  33   17   20 1
  34   18   19 1
  35   18   42 1
  36   18   43 1
  37   19   44 1
  38   19   45 1
  39   20   46 1
  40   20   47 1
  41   20   48 1
  42   21   22 ar
  43   21   26 ar
  44   22   23 ar
  45   22   49 1
  46   23   24 ar
  47   23   50 1
  48   24   25 ar
  49   24   27 1
  50   25   26 ar
  51   26   51 1
  52   27   28 1
  53   27   52 1
  54   28   29 1
  55   28   53 1
  56   28   54 1
  57   29   30 1
  58   29   55 1
  59   29   56 1
  60   30   57 1
  61   30   58 1

#	End of record

