#	Name: ASD01901490
#	Creating user name:	WinNT
#	Creation time:	15. 06. 2019 19:53

#	Modifying user name:	WinNT
#	Modification time:	15. 06. 2019 19:53

#	Program:	/corina/corina34_cracker 3.40 0067  02.08.2006

@<TRIPOS>MOLECULE
ASD01901490
  39   42    0    0    0
SMALL
NO_CHARGES


@<TRIPOS>ATOM
   1 C1             0.9178    -0.1590     1.0419 C.ar    
   2 C2             2.0974     0.5577     1.0313 C.ar    
   3 C3             2.3746     1.4227    -0.0117 C.ar    
   4 C4             1.4723     1.5752    -1.0492 C.ar    
   5 C5             0.2897     0.8641    -1.0487 C.ar    
   6 C6             0.0055    -0.0098    -0.0007 C.ar    
   7 C7            -1.2638    -0.7778     0.0050 C.2     
   8 N8            -2.3533    -2.8763    -0.0971 N.2     
   9 C9            -1.2413    -2.1852    -0.1012 C.2     
  10 N10           -2.4175    -0.1492     0.1146 N.2     
  11 N11           -3.6005    -0.8982     0.1178 N.pl3   
  12 C12           -3.5410    -2.2669     0.0073 C.2     
  13 C13           -4.9169    -0.5583     0.2133 C.2     
  14 C14           -5.6302    -1.7068     0.1606 C.2     
  15 N15           -4.7826    -2.7302     0.0352 N.2     
  16 C16           -7.1318    -1.8129     0.2316 C.3     
  17 O17           -7.6958    -0.5067     0.3643 O.3     
  18 C18           -9.0485    -0.4245     0.4422 C.ar    
  19 C19           -9.6819     0.8077     0.5728 C.ar    
  20 C20           -9.8378    -1.5713     0.3878 C.ar    
  21 C21          -11.2090    -1.4477     0.4702 C.ar    
  22 N22          -11.7753    -0.2624     0.5992 N.ar    
  23 C23          -11.0620     0.8490     0.6490 C.ar    
  24 C24            0.6199    -1.1058     2.1759 C.3     
  25 F25          -11.6883     2.0393     0.7763 F       
  26 H26            2.8050     0.4431     1.8391 H       
  27 H27            3.2988     1.9816    -0.0160 H       
  28 H28            1.6936     2.2523    -1.8610 H       
  29 H29           -0.4140     0.9838    -1.8592 H       
  30 H30           -0.2949    -2.6983    -0.1872 H       
  31 H31           -5.3158     0.4404     0.3126 H       
  32 H32           -7.5065    -2.2797    -0.6794 H       
  33 H33           -7.4129    -2.4192     1.0926 H       
  34 H34           -9.1036     1.7189     0.6143 H       
  35 H35           -9.3818    -2.5446     0.2820 H       
  36 H36          -11.8273    -2.3321     0.4284 H       
  37 H37            0.9255    -2.1142     1.8970 H       
  38 H38            1.1683    -0.7926     3.0643 H       
  39 H39           -0.4495    -1.0954     2.3866 H       
@<TRIPOS>BOND
   1    1    6 ar
   2    1    2 ar
   3    1   24 1
   4    2    3 ar
   5    2   26 1
   6    3    4 ar
   7    3   27 1
   8    4    5 ar
   9    4   28 1
  10    5    6 ar
  11    5   29 1
  12    6    7 1
  13    7   10 2
  14    7    9 1
  15    8    9 2
  16    8   12 1
  17    9   30 1
  18   10   11 1
  19   11   13 1
  20   11   12 1
  21   12   15 2
  22   13   14 2
  23   13   31 1
  24   14   15 1
  25   14   16 1
  26   16   17 1
  27   16   32 1
  28   16   33 1
  29   17   18 1
  30   18   19 ar
  31   18   20 ar
  32   19   23 ar
  33   19   34 1
  34   20   21 ar
  35   20   35 1
  36   21   22 ar
  37   21   36 1
  38   22   23 ar
  39   23   25 1
  40   24   37 1
  41   24   38 1
  42   24   39 1

#	End of record

