#	Name: ASD01880661
#	Creating user name:	WinNT
#	Creation time:	15. 06. 2019 19:41

#	Modifying user name:	WinNT
#	Modification time:	15. 06. 2019 19:41

#	Program:	/corina/corina34_cracker 3.40 0067  02.08.2006

@<TRIPOS>MOLECULE
ASD01880661
  52   55    0    0    0
SMALL
NO_CHARGES


@<TRIPOS>ATOM
   1 N1             0.0645     1.3750    -0.6397 N.ar    
   2 C2             0.1102     0.0791    -0.8728 C.ar    
   3 N3             1.2172    -0.6174    -0.7103 N.ar    
   4 C4             2.3355    -0.0351    -0.3031 C.ar    
   5 C5             2.3333     1.3233    -0.0471 C.ar    
   6 C6             1.1452     2.0292    -0.2289 C.ar    
   7 C7             3.5841     2.0235     0.4181 C.3     
   8 O8             4.6492     1.0765     0.5226 O.3     
   9 C9             5.8543     1.5474     0.9323 C.ar    
  10 C10            6.9345     0.6790     1.0556 C.ar    
  11 C11            8.1530     1.1567     1.4697 C.ar    
  12 C12            8.3169     2.5132     1.7691 C.ar    
  13 C13            7.2288     3.3813     1.6431 C.ar    
  14 C14            6.0098     2.8976     1.2226 C.ar    
  15 C15            9.4930     0.5044     1.7029 C.3     
  16 N16           10.3971     1.5723     2.1447 N.am    
  17 C17            9.7145     2.7295     2.1815 C.2     
  18 O18           10.1839     3.8024     2.5082 O.2     
  19 C19           -1.1377    -0.6263    -1.3377 C.3     
  20 O20            1.0937     3.3624     0.0088 O.3     
  21 C21           -0.1134     3.9802    -0.0809 C.ar    
  22 C22           -1.0446     3.8374     0.9377 C.ar    
  23 C23           -2.2707     4.4669     0.8443 C.ar    
  24 C24           -2.5703     5.2388    -0.2631 C.ar    
  25 C25           -1.6441     5.3827    -1.2795 C.ar    
  26 C26           -0.4146     4.7596    -1.1886 C.ar    
  27 C27           14.1450     1.4295     1.5980 C.3     
  28 C28           12.6683     1.6046     1.2380 C.3     
  29 C29           11.8111     1.4046     2.4894 C.3     
  30 H30            3.2375    -0.6146    -0.1726 H       
  31 H31            3.8554     2.7977    -0.2997 H       
  32 H32            3.4051     2.4780     1.3925 H       
  33 H33            6.8143    -0.3695     0.8263 H       
  34 H34            7.3445     4.4303     1.8722 H       
  35 H35            5.1694     3.5689     1.1251 H       
  36 H36            9.4086    -0.2590     2.4764 H       
  37 H37            9.8603     0.0615     0.7771 H       
  38 H38           -1.1792    -0.6115    -2.4268 H       
  39 H39           -1.1228    -1.6589    -0.9887 H       
  40 H40           -2.0137    -0.1189    -0.9338 H       
  41 H41           -0.8112     3.2343     1.8027 H       
  42 H42           -2.9960     4.3558     1.6368 H       
  43 H43           -3.5296     5.7298    -0.3343 H       
  44 H44           -1.8807     5.9859    -2.1436 H       
  45 H45            0.3087     4.8726    -1.9826 H       
  46 H46           14.4250     2.1655     2.3516 H       
  47 H47           14.3063     0.4262     1.9925 H       
  48 H48           14.7557     1.5719     0.7065 H       
  49 H49           12.5070     2.6078     0.8436 H       
  50 H50           12.3883     0.8685     0.4844 H       
  51 H51           12.0911     2.1407     3.2430 H       
  52 H52           11.9724     0.4014     2.8839 H       
@<TRIPOS>BOND
   1    1    2 ar
   2    1    6 ar
   3    2    3 ar
   4    2   19 1
   5    3    4 ar
   6    4    5 ar
   7    4   30 1
   8    5    6 ar
   9    5    7 1
  10    6   20 1
  11    7    8 1
  12    7   31 1
  13    7   32 1
  14    8    9 1
  15    9   10 ar
  16    9   14 ar
  17   10   11 ar
  18   10   33 1
  19   11   12 ar
  20   11   15 1
  21   12   13 ar
  22   12   17 1
  23   13   14 ar
  24   13   34 1
  25   14   35 1
  26   15   16 1
  27   15   36 1
  28   15   37 1
  29   16   17 am
  30   16   29 1
  31   17   18 2
  32   19   38 1
  33   19   39 1
  34   19   40 1
  35   20   21 1
  36   21   22 ar
  37   21   26 ar
  38   22   23 ar
  39   22   41 1
  40   23   24 ar
  41   23   42 1
  42   24   25 ar
  43   24   43 1
  44   25   26 ar
  45   25   44 1
  46   26   45 1
  47   27   28 1
  48   27   46 1
  49   27   47 1
  50   27   48 1
  51   28   29 1
  52   28   49 1
  53   28   50 1
  54   29   51 1
  55   29   52 1

#	End of record

