#	Name: ASD05430390
#	Creating user name:	WinNT
#	Creation time:	15. 06. 2019 21:00

#	Modifying user name:	WinNT
#	Modification time:	15. 06. 2019 21:00

#	Program:	/corina/corina34_cracker 3.40 0067  02.08.2006

@<TRIPOS>MOLECULE
ASD05430390
  55   59    0    0    0
SMALL
NO_CHARGES


@<TRIPOS>ATOM
   1 C1            -0.0229     1.3681     0.1755 C.ar    
   2 C2            -0.0158    -0.0184     0.3226 C.ar    
   3 C3            -1.2129    -0.7203     0.3792 C.ar    
   4 C4            -2.4135    -0.0498     0.2906 C.ar    
   5 C5            -2.4285     1.3412     0.1433 C.ar    
   6 C6            -1.2233     2.0482     0.0917 C.ar    
   7 C7            -4.8651     1.3680    -0.0475 C.2     
   8 C8            -3.7096     2.0591     0.0480 C.2     
   9 N9            -7.1680     1.5696    -0.8192 N.pl3   
  10 C10           -6.1758     2.0461     0.0374 C.2     
  11 O11            1.1509     2.0517     0.1200 O.3     
  12 C12            1.0690     3.4703    -0.0316 C.3     
  13 C13            1.5487    -1.6294     1.3654 C.2     
  14 N14            1.2030    -0.7060     0.4132 N.pl3   
  15 C15            2.7999    -2.0366     1.0779 C.2     
  16 N16            3.2113    -1.3829    -0.0185 N.2     
  17 C17            2.2636    -0.5829    -0.4261 C.2     
  18 C18            3.5995    -3.0509     1.8543 C.3     
  19 C19           -6.8956     0.3445    -1.5615 C.3     
  20 O20           -4.8704     0.0157    -0.2320 O.3     
  21 C21           -8.4272     2.2990    -0.9341 C.3     
  22 C22           -8.7846     2.8671     0.4442 C.3     
  23 O23           -7.6869     3.6083     0.9672 O.3     
  24 N24           -6.4153     3.0081     0.8624 N.2     
  25 C25           -8.2727     3.4258    -1.9229 C.ar    
  26 C26           -9.2960     3.7140    -2.8063 C.ar    
  27 C27           -7.9886     5.4953    -3.7396 C.ar    
  28 C28           -6.9661     5.2085    -2.8489 C.ar    
  29 C29           -7.1100     4.1732    -1.9414 C.ar    
  30 F30           -7.8498     6.5050    -4.6263 F       
  31 C31           -9.1558     4.7483    -3.7156 C.ar    
  32 C32           -6.0767    -0.5998    -0.6780 C.3     
  33 F33          -10.1559     5.0291    -4.5794 F       
  34 F34           -5.8296     5.9388    -2.8666 F       
  35 H35           -1.2027    -1.7943     0.4925 H       
  36 H36           -3.3429    -0.5982     0.3345 H       
  37 H37           -1.2302     3.1222    -0.0219 H       
  38 H38           -3.7252     3.1390     0.0545 H       
  39 H39            0.5224     3.8947     0.8105 H       
  40 H40            2.0740     3.8911    -0.0616 H       
  41 H41            0.5481     3.7070    -0.9593 H       
  42 H42            0.9370    -1.9629     2.1906 H       
  43 H43            2.3142     0.0672    -1.2870 H       
  44 H44            3.4124    -4.0464     1.4517 H       
  45 H45            4.6611    -2.8185     1.7698 H       
  46 H46            3.3035    -3.0215     2.9029 H       
  47 H47           -7.8361    -0.1339    -1.8346 H       
  48 H48           -6.3289     0.5814    -2.4620 H       
  49 H49           -9.2142     1.6226    -1.2676 H       
  50 H50           -9.6514     3.5214     0.3518 H       
  51 H51           -9.0232     2.0476     1.1221 H       
  52 H52          -10.2053     3.1317    -2.7873 H       
  53 H53           -6.3136     3.9494    -1.2472 H       
  54 H54           -6.6735    -0.8834     0.1890 H       
  55 H55           -5.8300    -1.4959    -1.2475 H       
@<TRIPOS>BOND
   1    1    2 ar
   2    1   11 1
   3    1    6 ar
   4    2    3 ar
   5    2   14 1
   6    3    4 ar
   7    3   35 1
   8    4    5 ar
   9    4   36 1
  10    5    6 ar
  11    5    8 1
  12    6   37 1
  13    7    8 2
  14    7   20 1
  15    7   10 1
  16    8   38 1
  17    9   10 1
  18    9   21 1
  19    9   19 1
  20   10   24 2
  21   11   12 1
  22   12   39 1
  23   12   40 1
  24   12   41 1
  25   13   14 1
  26   13   15 2
  27   13   42 1
  28   14   17 1
  29   15   16 1
  30   15   18 1
  31   16   17 2
  32   17   43 1
  33   18   44 1
  34   18   45 1
  35   18   46 1
  36   19   32 1
  37   19   47 1
  38   19   48 1
  39   20   32 1
  40   21   22 1
  41   21   25 1
  42   21   49 1
  43   22   23 1
  44   22   50 1
  45   22   51 1
  46   23   24 1
  47   25   26 ar
  48   25   29 ar
  49   26   31 ar
  50   26   52 1
  51   27   28 ar
  52   27   30 1
  53   27   31 ar
  54   28   29 ar
  55   28   34 1
  56   29   53 1
  57   31   33 1
  58   32   54 1
  59   32   55 1

#	End of record

