#	Name: ASD01860001
#	Creating user name:	WinNT
#	Creation time:	15. 06. 2019 19:38

#	Modifying user name:	WinNT
#	Modification time:	15. 06. 2019 19:38

#	Program:	/corina/corina34_cracker 3.40 0067  02.08.2006

@<TRIPOS>MOLECULE
ASD01860001
  12   11    0    0    0
SMALL
NO_CHARGES


@<TRIPOS>ATOM
   1 C1            -0.0143     1.2041     0.0087 C.2     
   2 O2             0.0021    -0.0041     0.0020 O.2     
   3 C3             1.2804     1.9752     0.0004 C.3     
   4 O4            -1.1858     1.8593     0.0178 O.3     
   5 C5             1.4170     2.7413     1.2910 C.2     
   6 O6             2.3752     1.0666    -0.1323 O.3     
   7 O7             2.3042     2.4683     2.0645 O.2     
   8 O8             0.5531     3.7268     1.5812 O.3     
   9 H9             1.2829     2.6721    -0.8377 H       
  10 H10           -1.9895     1.3217     0.0187 H       
  11 H11            2.4351     0.4160     0.5806 H       
  12 H12            0.6809     4.1896     2.4206 H       
@<TRIPOS>BOND
   1    1    2 2
   2    1    3 1
   3    1    4 1
   4    3    5 1
   5    3    6 1
   6    3    9 1
   7    4   10 1
   8    5    7 2
   9    5    8 1
  10    6   11 1
  11    8   12 1

#	End of record

