#	Name: ASD01915798
#	Creating user name:	WinNT
#	Creation time:	15. 06. 2019 20:06

#	Modifying user name:	WinNT
#	Modification time:	15. 06. 2019 20:06

#	Program:	/corina/corina34_cracker 3.40 0067  02.08.2006

@<TRIPOS>MOLECULE
ASD01915798
  45   48    0    0    0
SMALL
NO_CHARGES


@<TRIPOS>ATOM
   1 C1            -0.0042     1.4686     0.2345 C.2     
   2 N2             0.0662     0.1191    -0.0301 N.pl3   
   3 C3            -1.1430    -0.6638    -0.3125 C.3     
   4 C4            -2.3280    -0.0486     0.4299 C.3     
   5 N5            -2.4044     1.3988     0.2637 N.am    
   6 C6            -1.2935     2.1742     0.2859 C.2     
   7 C7             1.2763     1.9059     0.4252 C.2     
   8 C8             2.0758     0.7651     0.2732 C.2     
   9 N9             1.2864    -0.2503     0.0107 N.2     
  10 C10            3.5774     0.7133     0.3896 C.3     
  11 O11            4.0778     2.0193     0.6828 O.3     
  12 C12            5.4237     2.1477     0.8208 C.ar    
  13 O13           -1.3590     3.3874     0.3454 O.2     
  14 C14            5.9778     3.3873     1.1058 C.ar    
  15 C15            6.2453     1.0385     0.6826 C.ar    
  16 C16            7.6131     1.1717     0.8233 C.ar    
  17 C17            8.1634     2.4092     1.1016 C.ar    
  18 C18            7.3462     3.5152     1.2455 C.ar    
  19 C19           -3.6531     1.9997     0.0767 C.ar    
  20 C20           -3.9650     2.5898    -1.1411 C.ar    
  21 C21           -4.5843     2.0019     1.1064 C.ar    
  22 C22           -5.8214     2.5977     0.9184 C.ar    
  23 C23           -6.1278     3.1911    -0.2980 C.ar    
  24 C24           -5.2009     3.1844    -1.3257 C.ar    
  25 F25           -5.5014     3.7626    -2.5092 F       
  26 O26           -6.7344     2.6004     1.9250 O.3     
  27 C27           -7.9887     3.2323     1.6615 C.3     
  28 H28           -1.3405    -0.6542    -1.3845 H       
  29 H29           -0.9977    -1.6910     0.0219 H       
  30 H30           -3.2488    -0.4952     0.0550 H       
  31 H31           -2.2352    -0.2767     1.4917 H       
  32 H32            1.6015     2.9121     0.6447 H       
  33 H33            3.8563     0.0290     1.1909 H       
  34 H34            4.0030     0.3639    -0.5511 H       
  35 H35            5.3399     4.2515     1.2179 H       
  36 H36            5.8160     0.0716     0.4655 H       
  37 H37            8.2531     0.3084     0.7161 H       
  38 H38            9.2329     2.5113     1.2112 H       
  39 H39            7.7784     4.4809     1.4626 H       
  40 H40           -3.2428     2.5850    -1.9441 H       
  41 H41           -4.3451     1.5395     2.0526 H       
  42 H42           -7.0920     3.6553    -0.4442 H       
  43 H43           -7.8225     4.2808     1.4140 H       
  44 H44           -8.4776     2.7345     0.8241 H       
  45 H45           -8.6229     3.1638     2.5453 H       
@<TRIPOS>BOND
   1    1    2 1
   2    1    7 2
   3    1    6 1
   4    2    3 1
   5    2    9 1
   6    3    4 1
   7    3   28 1
   8    3   29 1
   9    4    5 1
  10    4   30 1
  11    4   31 1
  12    5    6 am
  13    5   19 1
  14    6   13 2
  15    7    8 1
  16    7   32 1
  17    8    9 2
  18    8   10 1
  19   10   11 1
  20   10   33 1
  21   10   34 1
  22   11   12 1
  23   12   14 ar
  24   12   15 ar
  25   14   18 ar
  26   14   35 1
  27   15   16 ar
  28   15   36 1
  29   16   17 ar
  30   16   37 1
  31   17   18 ar
  32   17   38 1
  33   18   39 1
  34   19   21 ar
  35   19   20 ar
  36   20   24 ar
  37   20   40 1
  38   21   22 ar
  39   21   41 1
  40   22   23 ar
  41   22   26 1
  42   23   24 ar
  43   23   42 1
  44   24   25 1
  45   26   27 1
  46   27   43 1
  47   27   44 1
  48   27   45 1

#	End of record

