#	Name: ASD05143118
#	Creating user name:	WinNT
#	Creation time:	15. 06. 2019 20:57

#	Modifying user name:	WinNT
#	Modification time:	15. 06. 2019 20:57

#	Program:	/corina/corina34_cracker 3.40 0067  02.08.2006

@<TRIPOS>MOLECULE
ASD05143118
 144  147    0    0    0
SMALL
NO_CHARGES


@<TRIPOS>ATOM
   1 C1            -2.0930     5.4492     7.5663 C.2     
   2 C2            -1.6061     4.7175     8.7905 C.3     
   3 N3            -1.2063     5.9804     6.7015 N.am    
   4 O4            -3.2829     5.5557     7.3568 O.2     
   5 C5            -1.6797     6.6917     5.5115 C.3     
   6 C6            -2.5146     5.7432     4.6488 C.3     
   7 C7            -2.5265     7.8654     5.9315 C.2     
   8 C8            -1.6237     4.6175     4.1198 C.3     
   9 C9            -2.4586     3.6690     3.2571 C.3     
  10 N10           -1.6055     2.5911     2.7505 N.pl3   
  11 C11           -2.1395     1.6122     1.9464 C.2     
  12 N12           -1.3389     0.6006     1.4710 N.pl3   
  13 N13           -3.4047     1.6431     1.6346 N.2     
  14 O14           -3.0177     7.8929     7.0401 O.2     
  15 N15           -2.7380     8.8845     5.0753 N.am    
  16 C16           -3.5612    10.0255     5.4836 C.3     
  17 C17           -2.6576    11.2182     5.8026 C.3     
  18 C18           -1.5002    10.7587     6.6913 C.3     
  19 C19           -0.3605    10.2840     5.8272 C.2     
  20 N20            0.9071    10.6979     6.1246 N.am    
  21 C21            1.9689    10.1811     5.2313 C.3     
  22 C22            2.1175    11.1348     4.0441 C.3     
  23 C23            2.7789    10.3974     2.8780 C.3     
  24 C24            3.7364    11.3446     2.1521 C.3     
  25 N25            3.6825    11.0591     0.7043 N.am    
  26 C26            5.1397    11.1291     2.6575 C.2     
  27 N27            5.5292    11.6842     3.8222 N.am    
  28 O28            5.9185    10.4560     2.0161 O.2     
  29 C29            2.8553    11.8430    -0.0398 C.2     
  30 O30            2.2124    12.7280     0.4841 O.2     
  31 C31            2.7487    11.5979    -1.5229 C.3     
  32 N32            1.5334    12.2780    -2.0267 N.am    
  33 C33            3.9835    12.1638    -2.2272 C.3     
  34 C34            0.4797    11.4569    -2.3134 C.2     
  35 O35            0.5713    10.2574    -2.1594 O.2     
  36 C36           -0.7988    12.0700    -2.8241 C.3     
  37 N37           -1.9252    11.1791    -2.4813 N.am    
  38 C38           -1.0089    13.4370    -2.1698 C.3     
  39 C39           -3.0289    11.7706    -1.9468 C.2     
  40 O40           -3.0578    12.9696    -1.7665 O.2     
  41 C41           -4.2142    10.9140    -1.5831 C.3     
  42 C42            3.9330    11.8098    -3.6912 C.2     
  43 C43            3.2333    12.5510    -4.7433 C.ar    
  44 C44            3.4691    11.8464    -5.9377 C.ar    
  45 N45            4.2546    10.7609    -5.6207 N.pl3   
  46 C46            4.5256    10.7587    -4.2795 C.2     
  47 C47            2.4566    13.7113    -4.7605 C.ar    
  48 C48            1.9291    14.1568    -5.9394 C.ar    
  49 C49            2.1586    13.4648    -7.1209 C.ar    
  50 C50            2.9224    12.3186    -7.1267 C.ar    
  51 N51           -4.7978    11.4228    -0.3210 N.am    
  52 C52           -3.7610     9.4653    -1.3917 C.3     
  53 C53           -4.9594     8.5979    -1.1046 C.ar    
  54 C54           -5.9899     8.5207    -2.0247 C.ar    
  55 C55           -7.0896     7.7283    -1.7686 C.ar    
  56 C56           -7.1614     7.0031    -0.5775 C.ar    
  57 C57           -6.1178     7.0856     0.3466 C.ar    
  58 C58           -5.0216     7.8778     0.0752 C.ar    
  59 C59           -4.5012    10.3930     4.3643 C.2     
  60 O60           -5.6994    10.2621     4.4992 O.2     
  61 C61           -1.0162    13.2783    -0.6481 C.3     
  62 C62           -1.3730    14.6164     0.0025 C.3     
  63 N63           -1.3800    14.4644     1.4596 N.pl3   
  64 C64           -1.6758    15.5412     2.2616 C.2     
  65 N65           -1.6824    15.3986     3.6290 N.pl3   
  66 N66           -1.9499    16.6973     1.7256 N.2     
  67 N67           -3.9860    10.8736     3.1994 N.am    
  68 C68           -4.9554    11.2168     2.1398 C.3     
  69 C69           -4.4028    10.7685     0.8114 C.2     
  70 O70           -3.6217     9.8429     0.7486 O.2     
  71 O71           -0.5648     9.5477     4.8854 O.2     
  72 C72           -5.1768    12.7306     2.1183 C.3     
  73 C73           -5.8280    13.1613     3.4073 C.2     
  74 O74           -6.0882    12.3417     4.2561 O.2     
  75 O75           -6.1188    14.4555     3.6126 O.3     
  76 C76           -8.3001     6.1788    -0.3047 C.1     
  77 N77           -9.2035     5.5250    -0.0883 N.1     
  78 H78           -1.4989     5.4213     9.6158 H       
  79 H79           -2.3257     3.9453     9.0625 H       
  80 H80           -0.6414     4.2565     8.5784 H       
  81 H81           -0.2546     5.8918     6.8670 H       
  82 H82           -0.8246     7.0478     4.9369 H       
  83 H83           -3.3186     5.3183     5.2497 H       
  84 H84           -2.9401     6.2944     3.8102 H       
  85 H85           -0.8197     5.0424     3.5189 H       
  86 H86           -1.1982     4.0663     4.9584 H       
  87 H87           -3.2626     3.2441     3.8580 H       
  88 H88           -2.8841     4.2202     2.4185 H       
  89 H89           -0.6640     2.5681     2.9825 H       
  90 H90           -0.3974     0.5776     1.7029 H       
  91 H91           -1.7157    -0.0901     0.9036 H       
  92 H92           -3.7815     0.9524     1.0673 H       
  93 H93           -2.3452     8.8625     4.1886 H       
  94 H94           -4.1377     9.7591     6.3695 H       
  95 H95           -2.2615    11.6320     4.8753 H       
  96 H96           -3.2347    11.9820     6.3238 H       
  97 H97           -1.1647    11.5910     7.3100 H       
  98 H98           -1.8354     9.9424     7.3312 H       
  99 H99            1.0982    11.2895     6.8692 H       
 100 H100           2.9111    10.1265     5.7766 H       
 101 H101           1.6938     9.1896     4.8717 H       
 102 H102           1.1335    11.4901     3.7381 H       
 103 H103           2.7362    11.9837     4.3351 H       
 104 H104           3.3347     9.5404     3.2585 H       
 105 H105           2.0121    10.0538     2.1837 H       
 106 H106           3.4357    12.3767     2.3323 H       
 107 H107           4.2091    10.3494     0.3043 H       
 108 H108           4.9063    12.2225     4.3352 H       
 109 H109           6.4324    11.5454     4.1474 H       
 110 H110           2.6743    10.5271    -1.7125 H       
 111 H111           1.4887    13.2397    -2.1453 H       
 112 H112           4.0004    13.2479    -2.1159 H       
 113 H113           4.8828    11.7387    -1.7815 H       
 114 H114          -0.7413    12.1861    -3.9064 H       
 115 H115          -1.8810    10.2215    -2.6290 H       
 116 H116          -0.2004    14.1075    -2.4613 H       
 117 H117          -1.9618    13.8535    -2.4963 H       
 118 H118          -4.9593    10.9647    -2.3771 H       
 119 H119           4.5717    10.0985    -6.2544 H       
 120 H120           5.1215    10.0169    -3.7686 H       
 121 H121           2.2733    14.2543    -3.8451 H       
 122 H122           1.3284    15.0543    -5.9522 H       
 123 H123           1.7345    13.8293    -8.0448 H       
 124 H124           3.0954    11.7875    -8.0511 H       
 125 H125          -5.4173    12.1690    -0.2996 H       
 126 H126          -3.2685     9.1157    -2.2991 H       
 127 H127          -3.0639     9.4101    -0.5556 H       
 128 H128          -5.9333     9.0824    -2.9454 H       
 129 H129          -7.8935     7.6692    -2.4875 H       
 130 H130          -6.1671     6.5276     1.2699 H       
 131 H131          -4.2137     7.9426     0.7891 H       
 132 H132          -1.7545    12.5282    -0.3646 H       
 133 H133          -0.0291    12.9621    -0.3110 H       
 134 H134          -0.6347    15.3665    -0.2810 H       
 135 H135          -2.3601    14.9325    -0.3346 H       
 136 H136          -1.1761    13.6041     1.8585 H       
 137 H137          -1.4784    14.5383     4.0279 H       
 138 H138          -1.8911    16.1583     4.1949 H       
 139 H139          -2.1585    17.4570     2.2915 H       
 140 H140          -3.0309    10.9851     3.0721 H       
 141 H141          -5.9011    10.7101     2.3318 H       
 142 H142          -4.2176    13.2366     2.0090 H       
 143 H143          -5.8228    12.9914     1.2801 H       
 144 H144          -6.5361    14.6835     4.4546 H       
@<TRIPOS>BOND
   1    1    2 1
   2    1    3 am
   3    1    4 2
   4    2   78 1
   5    2   79 1
   6    2   80 1
   7    3    5 1
   8    3   81 1
   9    5    6 1
  10    5    7 1
  11    5   82 1
  12    6    8 1
  13    6   83 1
  14    6   84 1
  15    7   14 2
  16    7   15 am
  17    8    9 1
  18    8   85 1
  19    8   86 1
  20    9   10 1
  21    9   87 1
  22    9   88 1
  23   10   11 1
  24   10   89 1
  25   11   12 1
  26   11   13 2
  27   12   90 1
  28   12   91 1
  29   13   92 1
  30   15   16 1
  31   15   93 1
  32   16   17 1
  33   16   59 1
  34   16   94 1
  35   17   18 1
  36   17   95 1
  37   17   96 1
  38   18   19 1
  39   18   97 1
  40   18   98 1
  41   19   20 am
  42   19   71 2
  43   20   21 1
  44   20   99 1
  45   21   22 1
  46   21  100 1
  47   21  101 1
  48   22   23 1
  49   22  102 1
  50   22  103 1
  51   23   24 1
  52   23  104 1
  53   23  105 1
  54   24   25 1
  55   24   26 1
  56   24  106 1
  57   25   29 am
  58   25  107 1
  59   26   27 am
  60   26   28 2
  61   27  108 1
  62   27  109 1
  63   29   30 2
  64   29   31 1
  65   31   32 1
  66   31   33 1
  67   31  110 1
  68   32   34 am
  69   32  111 1
  70   33   42 1
  71   33  112 1
  72   33  113 1
  73   34   35 2
  74   34   36 1
  75   36   37 1
  76   36   38 1
  77   36  114 1
  78   37   39 am
  79   37  115 1
  80   38   61 1
  81   38  116 1
  82   38  117 1
  83   39   40 2
  84   39   41 1
  85   41   51 1
  86   41   52 1
  87   41  118 1
  88   42   43 1
  89   42   46 2
  90   43   44 ar
  91   43   47 ar
  92   44   45 1
  93   44   50 ar
  94   45   46 1
  95   45  119 1
  96   46  120 1
  97   47   48 ar
  98   47  121 1
  99   48   49 ar
 100   48  122 1
 101   49   50 ar
 102   49  123 1
 103   50  124 1
 104   51   69 am
 105   51  125 1
 106   52   53 1
 107   52  126 1
 108   52  127 1
 109   53   54 ar
 110   53   58 ar
 111   54   55 ar
 112   54  128 1
 113   55   56 ar
 114   55  129 1
 115   56   57 ar
 116   56   76 1
 117   57   58 ar
 118   57  130 1
 119   58  131 1
 120   59   60 2
 121   59   67 am
 122   61   62 1
 123   61  132 1
 124   61  133 1
 125   62   63 1
 126   62  134 1
 127   62  135 1
 128   63   64 1
 129   63  136 1
 130   64   65 1
 131   64   66 2
 132   65  137 1
 133   65  138 1
 134   66  139 1
 135   67   68 1
 136   67  140 1
 137   68   69 1
 138   68   72 1
 139   68  141 1
 140   69   70 2
 141   72   73 1
 142   72  142 1
 143   72  143 1
 144   73   74 2
 145   73   75 1
 146   75  144 1
 147   76   77 3

#	End of record

