#	Name: ASD09610069
#	Creating user name:	WinNT
#	Creation time:	15. 06. 2019 21:22

#	Modifying user name:	WinNT
#	Modification time:	15. 06. 2019 21:22

#	Program:	/corina/corina34_cracker 3.40 0067  02.08.2006

@<TRIPOS>MOLECULE
ASD09610069
  42   44    0    0    0
SMALL
NO_CHARGES


@<TRIPOS>ATOM
   1 N1            -0.5027     2.1039    -1.0760 N.pl3   
   2 N2            -0.7415     0.8624    -0.4761 N.2     
   3 C3             0.3994     0.3364    -0.1249 C.2     
   4 C4             1.4265     1.2345    -0.4922 C.2     
   5 C5             0.8215     2.3258    -1.0831 C.2     
   6 C6             2.8730     1.0424    -0.2836 C.2     
   7 O7             3.2808     0.0299     0.2527 O.2     
   8 N8             3.7437     1.9887    -0.6871 N.am    
   9 C9             5.9049     2.9869    -0.2328 C.ar    
  10 C10            5.1048     1.8513    -0.4052 C.ar    
  11 C11            5.6690     0.5890    -0.2945 C.ar    
  12 C12            7.0156     0.4552    -0.0151 C.ar    
  13 C13            7.8084     1.5763     0.1556 C.ar    
  14 C14            7.2605     2.8390     0.0488 C.ar    
  15 C15            5.3128     4.3411    -0.3552 C.ar    
  16 C16            5.5353     5.1009    -1.5025 C.ar    
  17 C17            4.9815     6.3601    -1.6111 C.ar    
  18 C18            4.2071     6.8690    -0.5837 C.ar    
  19 C19            3.9830     6.1196     0.5569 C.ar    
  20 C20            4.5272     4.8565     0.6740 C.ar    
  21 C21            6.3795     4.5484    -2.6220 C.3     
  22 F22            6.3551     5.4335    -3.7050 F       
  23 F23            7.6968     4.3904    -2.1784 F       
  24 F24            5.8701     3.3082    -3.0217 F       
  25 C25            0.5887    -0.9955     0.5542 C.3     
  26 F26           -0.6450    -1.6476     0.6542 F       
  27 F27            1.4715    -1.7801    -0.1957 F       
  28 F28            1.1155    -0.7953     1.8347 F       
  29 C29           -1.5247     3.0065    -1.6116 C.3     
  30 H30            1.3215     3.1977    -1.4785 H       
  31 H31            3.4250     2.7653    -1.1732 H       
  32 H32            5.0553    -0.2899    -0.4264 H       
  33 H33            7.4514    -0.5293     0.0707 H       
  34 H34            8.8601     1.4631     0.3738 H       
  35 H35            7.8831     3.7113     0.1825 H       
  36 H36            5.1532     6.9496    -2.4995 H       
  37 H37            3.7762     7.8553    -0.6727 H       
  38 H38            3.3776     6.5219     1.3557 H       
  39 H39            4.3479     4.2704     1.5633 H       
  40 H40           -1.8542     3.6884    -0.8276 H       
  41 H41           -1.1060     3.5794    -2.4390 H       
  42 H42           -2.3744     2.4234    -1.9666 H       
@<TRIPOS>BOND
   1    1    2 1
   2    1    5 1
   3    1   29 1
   4    2    3 2
   5    3    4 1
   6    3   25 1
   7    4    5 2
   8    4    6 1
   9    5   30 1
  10    6    7 2
  11    6    8 am
  12    8   10 1
  13    8   31 1
  14    9   10 ar
  15    9   14 ar
  16    9   15 1
  17   10   11 ar
  18   11   12 ar
  19   11   32 1
  20   12   13 ar
  21   12   33 1
  22   13   14 ar
  23   13   34 1
  24   14   35 1
  25   15   16 ar
  26   15   20 ar
  27   16   17 ar
  28   16   21 1
  29   17   18 ar
  30   17   36 1
  31   18   19 ar
  32   18   37 1
  33   19   20 ar
  34   19   38 1
  35   20   39 1
  36   21   22 1
  37   21   23 1
  38   21   24 1
  39   25   26 1
  40   25   27 1
  41   25   28 1
  42   29   40 1
  43   29   41 1
  44   29   42 1

#	End of record

