#	Name: ASD00170703
#	Creating user name:	WinNT
#	Creation time:	15. 06. 2019 18:32

#	Modifying user name:	WinNT
#	Modification time:	15. 06. 2019 18:32

#	Program:	/corina/corina34_cracker 3.40 0067  02.08.2006

@<TRIPOS>MOLECULE
ASD00170703
  31   34    0    0    0
SMALL
NO_CHARGES


@<TRIPOS>ATOM
   1 C1            -0.0165     1.3688     0.0096 C.2     
   2 C2             0.0021    -0.0039     0.0349 C.2     
   3 C3            -1.3300    -0.5892     0.0366 C.2     
   4 C4            -2.3349     0.3616     0.0122 C.2     
   5 S5            -1.6586     1.9779    -0.0058 S.3     
   6 C6             0.9839    -1.1221     0.0621 C.ar    
   7 C7             0.2843    -2.3394     0.0798 C.ar    
   8 C8            -1.1618    -2.0546     0.0649 C.2     
   9 C9             2.3772    -1.1216     0.0710 C.ar    
  10 C10            3.0640    -2.3190     0.0972 C.ar    
  11 C11            2.3759    -3.5217     0.1149 C.ar    
  12 C12            0.9966    -3.5405     0.1068 C.ar    
  13 O13           -2.0572    -2.8808     0.0745 O.2     
  14 N14           -3.6787     0.0774     0.0078 N.pl3   
  15 H15            4.1439    -2.3183     0.1037 H       
  16 C16            1.1886     2.2193     0.0026 C.ar    
  17 C17            1.3056     3.2636    -0.9184 C.ar    
  18 C18            2.4353     4.0547    -0.9191 C.ar    
  19 C19            3.4518     3.8160    -0.0108 C.ar    
  20 C20            3.3429     2.7836     0.9044 C.ar    
  21 C21            2.2162     1.9883     0.9209 C.ar    
  22 H22            2.9185    -0.1872     0.0570 H       
  23 H23            2.9241    -4.4521     0.1350 H       
  24 H24            0.4684    -4.4825     0.1203 H       
  25 H25           -3.9795    -0.8447     0.0224 H       
  26 H26           -4.3269     0.7988    -0.0099 H       
  27 H27            0.5135     3.4505    -1.6283 H       
  28 H28            2.5271     4.8621    -1.6304 H       
  29 H29            4.3345     4.4383    -0.0163 H       
  30 H30            4.1400     2.6032     1.6103 H       
  31 H31            2.1306     1.1858     1.6385 H       
@<TRIPOS>BOND
   1    1    2 2
   2    1   16 1
   3    1    5 1
   4    2    3 1
   5    2    6 1
   6    3    4 2
   7    3    8 1
   8    4    5 1
   9    4   14 1
  10    6    7 ar
  11    6    9 ar
  12    7    8 1
  13    7   12 ar
  14    8   13 2
  15    9   10 ar
  16    9   22 1
  17   10   11 ar
  18   10   15 1
  19   11   12 ar
  20   11   23 1
  21   12   24 1
  22   14   25 1
  23   14   26 1
  24   16   17 ar
  25   16   21 ar
  26   17   18 ar
  27   17   27 1
  28   18   19 ar
  29   18   28 1
  30   19   20 ar
  31   19   29 1
  32   20   21 ar
  33   20   30 1
  34   21   31 1

#	End of record

