#	Name: ASD01901035
#	Creating user name:	WinNT
#	Creation time:	15. 06. 2019 19:53

#	Modifying user name:	WinNT
#	Modification time:	15. 06. 2019 19:53

#	Program:	/corina/corina34_cracker 3.40 0067  02.08.2006

@<TRIPOS>MOLECULE
ASD01901035
  23   24    0    0    0
SMALL
NO_CHARGES


@<TRIPOS>ATOM
   1 C1            -0.0159     1.3189     0.0093 C.ar    
   2 N2             0.0021    -0.0041     0.0020 N.ar    
   3 C3             1.1614    -0.6669    -0.0127 C.ar    
   4 C4             2.3597     0.0634    -0.0202 C.ar    
   5 C5             2.2886     1.4425    -0.0121 C.ar    
   6 N6             1.1017     2.0315     0.0024 N.ar    
   7 N7            -1.2340     1.9762     0.0186 N.pl3   
   8 C8             1.1819    -2.1362    -0.0203 C.2     
   9 C9             0.0227    -2.8272    -0.0124 C.2     
  10 O10            1.1451    -5.0674    -0.0342 O.3     
  11 C11            0.0431    -4.2903    -0.0200 C.2     
  12 C12           -1.0513    -5.1088    -0.0139 C.2     
  13 C13           -0.5685    -6.4288    -0.0251 C.2     
  14 C14            0.7795    -6.3587    -0.0373 C.2     
  15 H15            3.3146    -0.4410    -0.0317 H       
  16 H16            3.1915     2.0352    -0.0173 H       
  17 H17           -2.0597     1.4672     0.0197 H       
  18 H18           -1.2619     2.9458     0.0240 H       
  19 H19            2.1246    -2.6631    -0.0321 H       
  20 H20           -0.9200    -2.3004    -0.0005 H       
  21 H21           -2.0865    -4.8011    -0.0023 H       
  22 H22           -1.1641    -7.3297    -0.0240 H       
  23 H23            1.4530    -7.2029    -0.0484 H       
@<TRIPOS>BOND
   1    1    2 ar
   2    1    6 ar
   3    1    7 1
   4    2    3 ar
   5    3    4 ar
   6    3    8 1
   7    4    5 ar
   8    4   15 1
   9    5    6 ar
  10    5   16 1
  11    7   17 1
  12    7   18 1
  13    8    9 2
  14    8   19 1
  15    9   11 1
  16    9   20 1
  17   10   11 1
  18   10   14 1
  19   11   12 2
  20   12   13 1
  21   12   21 1
  22   13   14 2
  23   13   22 1
  24   14   23 1

#	End of record

