#	Name: ASD02198367
#	Creating user name:	WinNT
#	Creation time:	15. 06. 2019 20:19

#	Modifying user name:	WinNT
#	Modification time:	15. 06. 2019 20:19

#	Program:	/corina/corina34_cracker 3.40 0067  02.08.2006

@<TRIPOS>MOLECULE
ASD02198367
  31   33    0    0    0
SMALL
NO_CHARGES


@<TRIPOS>ATOM
   1 C1             1.6345     1.6038    -2.9182 C.2     
   2 C2             1.7125     0.2266    -3.0485 C.2     
   3 S3             2.4683     2.0481    -1.4311 S.3     
   4 C4             2.8347     0.4073    -1.1264 C.2     
   5 N5             2.3608    -0.3567    -2.0688 N.2     
   6 N6             1.1594    -0.4672    -4.1109 N.pl3   
   7 C7             1.0121     2.4823    -3.8085 C.2     
   8 C8             1.0104     3.9631    -3.5286 C.3     
   9 O9             0.4716     2.0519    -4.8097 O.2     
  10 N10            3.5369    -0.0460    -0.0327 N.pl3   
  11 C11            3.8880    -1.3970     0.0624 C.ar    
  12 C12            5.1422    -1.8220    -0.3589 C.ar    
  13 C13            5.4856    -3.1575    -0.2635 C.ar    
  14 C14            4.5826    -4.0703     0.2500 C.ar    
  15 C15            3.3336    -3.6512     0.6698 C.ar    
  16 C16            2.9856    -2.3162     0.5836 C.ar    
  17 Cl17           1.4174    -1.7911     1.1116 Cl      
  18 Cl18           6.2761    -0.6772    -1.0048 Cl      
  19 C19            0.8698     4.9078    -4.7238 C.3     
  20 C20           -0.2984     4.7230    -3.7532 C.3     
  21 H21            0.6891     0.0121    -4.8109 H       
  22 H22            1.2420    -1.4326    -4.1553 H       
  23 H23            1.6452     4.2863    -2.7036 H       
  24 H24            3.7882     0.5712     0.6722 H       
  25 H25            6.4601    -3.4886    -0.5907 H       
  26 H26            4.8536    -5.1133     0.3230 H       
  27 H27            2.6308    -4.3670     1.0700 H       
  28 H28            1.4118     5.8527    -4.6850 H       
  29 H29            0.7785     4.4583    -5.7126 H       
  30 H30           -1.1582     4.1519    -4.1034 H       
  31 H31           -0.5249     5.5463    -3.0758 H       
@<TRIPOS>BOND
   1    1    2 2
   2    1    3 1
   3    1    7 1
   4    2    6 1
   5    2    5 1
   6    3    4 1
   7    4    5 2
   8    4   10 1
   9    6   21 1
  10    6   22 1
  11    7    8 1
  12    7    9 2
  13    8   19 1
  14    8   20 1
  15    8   23 1
  16   10   11 1
  17   10   24 1
  18   11   12 ar
  19   11   16 ar
  20   12   13 ar
  21   12   18 1
  22   13   14 ar
  23   13   25 1
  24   14   15 ar
  25   14   26 1
  26   15   16 ar
  27   15   27 1
  28   16   17 1
  29   19   20 1
  30   19   28 1
  31   19   29 1
  32   20   30 1
  33   20   31 1

#	End of record

