#	Name: ASD00069140
#	Creating user name:	WinNT
#	Creation time:	15. 06. 2019 18:29

#	Modifying user name:	WinNT
#	Modification time:	15. 06. 2019 18:29

#	Program:	/corina/corina34_cracker 3.40 0067  02.08.2006

@<TRIPOS>MOLECULE
ASD00069140
  60   63    0    0    0
SMALL
NO_CHARGES


@<TRIPOS>ATOM
   1 C1            -0.5302     1.2877    -0.3284 C.2     
   2 N2            -0.3497     0.0751     0.1458 N.2     
   3 C3             0.9118    -0.3038    -0.0939 C.2     
   4 C4             1.5437     0.7183    -0.7460 C.2     
   5 N5             0.6407     1.7133    -0.8922 N.pl3   
   6 C6            -1.7862     2.0573    -0.2683 C.2     
   7 O7            -1.8373     3.1760    -0.7428 O.2     
   8 N8            -2.8779     1.5212     0.3125 N.am    
   9 C9             1.3783    -3.7795     1.2821 C.ar    
  10 C10            0.7712    -2.5756     0.9491 C.ar    
  11 C11            1.5179    -1.6044     0.2824 C.ar    
  12 C12            2.8543    -1.8892    -0.0227 C.ar    
  13 C13            3.3818    -3.1082     0.3426 C.ar    
  14 N14            2.6465    -4.0056     0.9732 N.ar    
  15 N15            0.6490    -4.7555     1.9519 N.pl3   
  16 C16           -0.7536    -4.5131     2.2984 C.3     
  17 C17            1.2832    -6.0263     2.3111 C.3     
  18 C18           -4.0346     2.2936     0.4762 C.ar    
  19 C19           -5.2916     1.6966     0.3900 C.ar    
  20 C20           -6.4344     2.4682     0.5538 C.ar    
  21 C21           -6.3225     3.8254     0.8016 C.ar    
  22 C22           -5.0751     4.4159     0.8863 C.ar    
  23 C23           -3.9326     3.6536     0.7301 C.ar    
  24 F24           -7.6548     1.8946     0.4708 F       
  25 N25           -5.4014     0.3230     0.1386 N.3     
  26 C26           -6.1035    -0.3580     1.2339 C.3     
  27 C27           -6.0770    -1.8697     0.9967 C.3     
  28 C28           -6.7530    -2.1834    -0.3409 C.3     
  29 C29           -6.0325    -1.4239    -1.4584 C.3     
  30 C30           -6.0603     0.0748    -1.1500 C.3     
  31 C31           -6.6757    -3.6871    -0.6125 C.3     
  32 N32           -7.4272    -4.0032    -1.8346 N.3     
  33 H33            2.5706     0.7289    -1.0805 H       
  34 H34            0.7948     2.5710    -1.3183 H       
  35 H35           -2.8624     0.6005     0.6172 H       
  36 H36           -0.2631    -2.3944     1.2020 H       
  37 H37            3.4641    -1.1622    -0.5385 H       
  38 H38            4.4121    -3.3333     0.1098 H       
  39 H39           -1.0742    -3.5626     1.8718 H       
  40 H40           -1.3709    -5.3175     1.8985 H       
  41 H41           -0.8593    -4.4787     3.3827 H       
  42 H42            1.7321    -5.9415     3.3007 H       
  43 H43            0.5331    -6.8172     2.3189 H       
  44 H44            2.0561    -6.2659     1.5808 H       
  45 H45           -7.2118     4.4248     0.9288 H       
  46 H46           -4.9931     5.4754     1.0791 H       
  47 H47           -2.9600     4.1178     0.8014 H       
  48 H48           -5.6103    -0.1300     2.1788 H       
  49 H49           -7.1372    -0.0144     1.2718 H       
  50 H50           -5.0439    -2.2162     0.9725 H       
  51 H51           -6.6118    -2.3738     1.8017 H       
  52 H52           -7.7969    -1.8722    -0.3034 H       
  53 H53           -4.9987    -1.7634    -1.5212 H       
  54 H54           -6.5354    -1.6095    -2.4074 H       
  55 H55           -7.0942     0.4164    -1.1010 H       
  56 H56           -5.5357     0.6172    -1.9366 H       
  57 H57           -5.6337    -3.9801    -0.7408 H       
  58 H58           -7.1051    -4.2308     0.2289 H       
  59 H59           -7.3914    -4.9913    -2.0357 H       
  60 H60           -8.3814    -3.6826    -1.7654 H       
@<TRIPOS>BOND
   1    1    2 2
   2    1    5 1
   3    1    6 1
   4    2    3 1
   5    3    4 2
   6    3   11 1
   7    4    5 1
   8    4   33 1
   9    5   34 1
  10    6    7 2
  11    6    8 am
  12    8   18 1
  13    8   35 1
  14    9   10 ar
  15    9   14 ar
  16    9   15 1
  17   10   11 ar
  18   10   36 1
  19   11   12 ar
  20   12   13 ar
  21   12   37 1
  22   13   14 ar
  23   13   38 1
  24   15   16 1
  25   15   17 1
  26   16   39 1
  27   16   40 1
  28   16   41 1
  29   17   42 1
  30   17   43 1
  31   17   44 1
  32   18   19 ar
  33   18   23 ar
  34   19   20 ar
  35   19   25 1
  36   20   21 ar
  37   20   24 1
  38   21   22 ar
  39   21   45 1
  40   22   23 ar
  41   22   46 1
  42   23   47 1
  43   25   26 1
  44   25   30 1
  45   26   27 1
  46   26   48 1
  47   26   49 1
  48   27   28 1
  49   27   50 1
  50   27   51 1
  51   28   29 1
  52   28   31 1
  53   28   52 1
  54   29   30 1
  55   29   53 1
  56   29   54 1
  57   30   55 1
  58   30   56 1
  59   31   32 1
  60   31   57 1
  61   31   58 1
  62   32   59 1
  63   32   60 1

#	End of record

