#	Name: ASD04882134
#	Creating user name:	WinNT
#	Creation time:	15. 06. 2019 20:54

#	Modifying user name:	WinNT
#	Modification time:	15. 06. 2019 20:54

#	Program:	/corina/corina34_cracker 3.40 0067  02.08.2006

@<TRIPOS>MOLECULE
ASD04882134
  76   80    0    0    0
SMALL
NO_CHARGES


@<TRIPOS>ATOM
   1 C1             0.4252     1.4614     0.7288 C.ar    
   2 C2             0.3581     0.0139     0.4243 C.2     
   3 O3            -0.6478    -0.4573    -0.0691 O.2     
   4 N4             1.4125    -0.7811     0.6942 N.am    
   5 C5             1.3112    -2.1658     0.5085 C.ar    
   6 C6             2.4296    -2.9012     0.1049 C.ar    
   7 C7             2.3305    -4.2752    -0.0797 C.ar    
   8 C8             1.1308    -4.9174     0.1348 C.ar    
   9 C9             0.0092    -4.1884     0.5388 C.ar    
  10 C10            0.1073    -2.8069     0.7298 C.ar    
  11 N11            3.6442    -2.2563    -0.1130 N.3     
  12 C12            3.5605    -1.3521    -1.2685 C.3     
  13 C13            4.8872    -0.6053    -1.4256 C.3     
  14 N14            5.9759    -1.5771    -1.5987 N.3     
  15 C15            6.0595    -2.4813    -0.4432 C.3     
  16 C16            4.7329    -3.2281    -0.2861 C.3     
  17 C17            7.1943    -0.9302    -1.8173 C.ar    
  18 C18            7.3980    -0.2051    -2.9848 C.ar    
  19 C19            9.6079     0.3519    -2.2500 C.ar    
  20 C20            8.2029    -1.0054    -0.8653 C.ar    
  21 C21            8.6036     0.4336    -3.1975 C.ar    
  22 C22            9.4064    -0.3640    -1.0845 C.ar    
  23 C23           -1.2755    -4.8764     0.7684 C.2     
  24 N24           -1.3679    -6.2089     0.5885 N.am    
  25 O25           -2.2510    -4.2413     1.1199 O.2     
  26 C26           -2.6436    -6.8921     0.8165 C.3     
  27 C27           -2.4767    -8.3883     0.5439 C.3     
  28 C28           -3.8090    -9.1019     0.7820 C.3     
  29 N29           -3.6492   -10.5345     0.5211 N.am    
  30 C30           -3.2900   -11.4389     1.4483 C.2     
  31 C31           -3.8668   -11.1677    -0.7850 C.3     
  32 C32           -3.1768   -12.5469    -0.6945 C.3     
  33 C33           -3.2129   -12.8169     0.8287 C.3     
  34 O34           -3.0603   -11.1868     2.6122 O.2     
  35 C35            6.3047    -0.1164    -4.0181 C.3     
  36 N36            1.5267     1.9700     1.2676 N.ar    
  37 C37            1.6278     3.2496     1.5531 C.ar    
  38 C38            0.5785     4.1207     1.2998 C.ar    
  39 C39           -0.5914     3.6302     0.7370 C.ar    
  40 C40           -0.6664     2.2789     0.4419 C.ar    
  41 Cl41           0.7269     5.8073     1.6834 Cl      
  42 H42            2.2414    -0.3944     1.0170 H       
  43 H43            3.1959    -4.8407    -0.3922 H       
  44 H44            1.0569    -5.9851    -0.0098 H       
  45 H45           -0.7570    -2.2415     1.0456 H       
  46 H46            3.3604    -1.9314    -2.1698 H       
  47 H47            2.7555    -0.6343    -1.1109 H       
  48 H48            4.8374     0.0445    -2.2992 H       
  49 H49            5.0740    -0.0047    -0.5354 H       
  50 H50            6.8645    -3.1992    -0.6008 H       
  51 H51            6.2597    -1.9020     0.4581 H       
  52 H52            4.7826    -3.8780     0.5875 H       
  53 H53            4.5460    -3.8287    -1.1763 H       
  54 H54           10.5500     0.8522    -2.4190 H       
  55 H55            8.0462    -1.5645     0.0453 H       
  56 H56            8.7626     0.9974    -4.1048 H       
  57 H57           10.1927    -0.4258    -0.3467 H       
  58 H58           -0.5898    -6.7155     0.3081 H       
  59 H59           -2.9556    -6.7437     1.8503 H       
  60 H60           -3.3998    -6.4829     0.1465 H       
  61 H61           -2.1648    -8.5368    -0.4899 H       
  62 H62           -1.7206    -8.7976     1.2139 H       
  63 H63           -4.1210    -8.9535     1.8159 H       
  64 H64           -4.5652    -8.6927     0.1121 H       
  65 H65           -4.9337   -11.2911    -0.9712 H       
  66 H66           -3.4121   -10.5695    -1.5746 H       
  67 H67           -3.7443   -13.3033    -1.2367 H       
  68 H68           -2.1512   -12.4946    -1.0596 H       
  69 H69           -2.3045   -13.3282     1.1472 H       
  70 H70           -4.0937   -13.4028     1.0915 H       
  71 H71            5.7204     0.7887    -3.8521 H       
  72 H72            6.7473    -0.0856    -5.0137 H       
  73 H73            5.6555    -0.9881    -3.9359 H       
  74 H74            2.5399     3.6273     1.9910 H       
  75 H75           -1.4228     4.2878     0.5300 H       
  76 H76           -1.5615     1.8631     0.0033 H       
@<TRIPOS>BOND
   1    1    2 1
   2    1   36 ar
   3    1   40 ar
   4    2    3 2
   5    2    4 am
   6    4    5 1
   7    4   42 1
   8    5    6 ar
   9    5   10 ar
  10    6    7 ar
  11    6   11 1
  12    7    8 ar
  13    7   43 1
  14    8    9 ar
  15    8   44 1
  16    9   10 ar
  17    9   23 1
  18   10   45 1
  19   11   12 1
  20   11   16 1
  21   12   13 1
  22   12   46 1
  23   12   47 1
  24   13   14 1
  25   13   48 1
  26   13   49 1
  27   14   15 1
  28   14   17 1
  29   15   16 1
  30   15   50 1
  31   15   51 1
  32   16   52 1
  33   16   53 1
  34   17   18 ar
  35   17   20 ar
  36   18   21 ar
  37   18   35 1
  38   19   21 ar
  39   19   22 ar
  40   19   54 1
  41   20   22 ar
  42   20   55 1
  43   21   56 1
  44   22   57 1
  45   23   24 am
  46   23   25 2
  47   24   26 1
  48   24   58 1
  49   26   27 1
  50   26   59 1
  51   26   60 1
  52   27   28 1
  53   27   61 1
  54   27   62 1
  55   28   29 1
  56   28   63 1
  57   28   64 1
  58   29   30 am
  59   29   31 1
  60   30   34 2
  61   30   33 1
  62   31   32 1
  63   31   65 1
  64   31   66 1
  65   32   33 1
  66   32   67 1
  67   32   68 1
  68   33   69 1
  69   33   70 1
  70   35   71 1
  71   35   72 1
  72   35   73 1
  73   36   37 ar
  74   37   38 ar
  75   37   74 1
  76   38   39 ar
  77   38   41 1
  78   39   40 ar
  79   39   75 1
  80   40   76 1

#	End of record

