#	Name: ASD01917256
#	Creating user name:	WinNT
#	Creation time:	15. 06. 2019 20:08

#	Modifying user name:	WinNT
#	Modification time:	15. 06. 2019 20:08

#	Program:	/corina/corina34_cracker 3.40 0067  02.08.2006

@<TRIPOS>MOLECULE
ASD01917256
  43   46    0    0    0
SMALL
NO_CHARGES


@<TRIPOS>ATOM
   1 C1             0.1353     0.7379    -0.4618 C.ar    
   2 C2             0.2934    -0.6241    -0.2858 C.ar    
   3 C3             1.5550    -1.1537    -0.0892 C.ar    
   4 C4             2.6586    -0.3215    -0.0690 C.ar    
   5 C5             2.5005     1.0404    -0.2459 C.ar    
   6 C6             1.2388     1.5702    -0.4411 C.ar    
   7 C7             3.7036     1.9477    -0.2233 C.3     
   8 O8             4.2266     2.0783    -1.5468 O.3     
   9 C9             5.3218     2.8694    -1.7026 C.2     
  10 N10            5.9393     3.5229    -0.7401 N.2     
  11 N11            7.0045     4.2229    -1.2917 N.pl3   
  12 C12            7.0241     3.9581    -2.6428 C.2     
  13 C13            5.9831     3.1190    -2.9130 C.2     
  14 C14            7.9816     5.1153    -0.6654 C.3     
  15 C15            9.2920     5.0580    -1.4502 C.3     
  16 N16            9.0880     5.1625    -2.8907 N.am    
  17 C17            8.0617     4.5349    -3.5133 C.2     
  18 O18            8.0007     4.4525    -4.7253 O.2     
  19 C19            9.9723     5.9289    -3.6465 C.ar    
  20 C20           11.1556     6.3814    -3.0730 C.ar    
  21 N21            9.6811     6.2151    -4.9056 N.ar    
  22 C22           10.4910     6.9373    -5.6561 C.ar    
  23 C23           11.6802     7.4231    -5.1502 C.ar    
  24 C24           12.0251     7.1412    -3.8351 C.ar    
  25 C25           10.1133     7.2353    -7.0843 C.3     
  26 H26           -0.8499     1.1511    -0.6199 H       
  27 H27           -0.5688    -1.2743    -0.3016 H       
  28 H28            1.6784    -2.2177     0.0490 H       
  29 H29            3.6442    -0.7352     0.0854 H       
  30 H30            1.1154     2.6341    -0.5797 H       
  31 H31            3.4115     2.9291     0.1504 H       
  32 H32            4.4668     1.5230     0.4287 H       
  33 H33            5.7138     2.7253    -3.8820 H       
  34 H34            7.5985     6.1357    -0.6707 H       
  35 H35            8.1585     4.7976     0.3622 H       
  36 H36            9.9336     5.8769    -1.1249 H       
  37 H37            9.7918     4.1140    -1.2328 H       
  38 H38           11.3925     6.1433    -2.0466 H       
  39 H39           12.3371     8.0131    -5.7720 H       
  40 H40           12.9496     7.5095    -3.4155 H       
  41 H41            9.5423     8.1630    -7.1231 H       
  42 H42           11.0169     7.3395    -7.6849 H       
  43 H43            9.5076     6.4191    -7.4779 H       
@<TRIPOS>BOND
   1    1    2 ar
   2    1    6 ar
   3    1   26 1
   4    2    3 ar
   5    2   27 1
   6    3    4 ar
   7    3   28 1
   8    4    5 ar
   9    4   29 1
  10    5    6 ar
  11    5    7 1
  12    6   30 1
  13    7    8 1
  14    7   31 1
  15    7   32 1
  16    8    9 1
  17    9   10 2
  18    9   13 1
  19   10   11 1
  20   11   12 1
  21   11   14 1
  22   12   13 2
  23   12   17 1
  24   13   33 1
  25   14   15 1
  26   14   34 1
  27   14   35 1
  28   15   16 1
  29   15   36 1
  30   15   37 1
  31   16   17 am
  32   16   19 1
  33   17   18 2
  34   19   20 ar
  35   19   21 ar
  36   20   24 ar
  37   20   38 1
  38   21   22 ar
  39   22   23 ar
  40   22   25 1
  41   23   24 ar
  42   23   39 1
  43   24   40 1
  44   25   41 1
  45   25   42 1
  46   25   43 1

#	End of record

