#	Name: ASD02398007
#	Creating user name:	WinNT
#	Creation time:	15. 06. 2019 20:20

#	Modifying user name:	WinNT
#	Modification time:	15. 06. 2019 20:20

#	Program:	/corina/corina34_cracker 3.40 0067  02.08.2006

@<TRIPOS>MOLECULE
ASD02398007
  47   49    0    0    0
SMALL
NO_CHARGES


@<TRIPOS>ATOM
   1 C1             0.3983     1.0412     0.3235 C.ar    
   2 C2             0.1295    -0.3240     0.2388 C.ar    
   3 C3             1.1702    -1.2444     0.3480 C.ar    
   4 C4             2.4627    -0.8024     0.5395 C.ar    
   5 C5             2.7272     0.5577     0.6234 C.ar    
   6 C6             1.6924     1.4771     0.5150 C.ar    
   7 C7             3.5886    -1.7970     0.6582 C.3     
   8 C8             3.8535    -2.0845     2.1136 C.2     
   9 O9             3.1956    -1.5379     2.9669 O.2     
  10 O10            4.8204    -2.9479     2.4619 O.3     
  11 C11           -1.2618    -0.7962     0.0332 C.ar    
  12 C12           -2.2689    -0.4107     0.9162 C.ar    
  13 C13           -1.5676    -1.6221    -1.0465 C.ar    
  14 C14           -2.8639    -2.0581    -1.2332 C.ar    
  15 C15           -3.8583    -1.6767    -0.3509 C.ar    
  16 C16           -3.5614    -0.8526     0.7199 C.ar    
  17 C17           -1.9469     0.4866     2.0833 C.3     
  18 N18           -3.1312     0.6245     2.9345 N.am    
  19 C19           -3.4298    -0.1507     3.9859 C.2     
  20 O20           -4.5708     0.1843     4.5985 O.3     
  21 C21           -5.1687     1.3271     3.9207 C.3     
  22 C22           -4.1833     1.6406     2.7783 C.3     
  23 O23           -2.7284    -1.0740     4.3494 O.2     
  24 O24            4.0014     0.9902     0.8121 O.3     
  25 C25            4.2023     2.4029     0.8893 C.3     
  26 C26           -5.2717    -2.1560    -0.5600 C.3     
  27 F27           -5.3260    -2.9648    -1.7002 F       
  28 F28           -5.6837    -2.8936     0.5551 F       
  29 F29           -6.1175    -1.0544    -0.7289 F       
  30 H30           -0.4056     1.7569     0.2347 H       
  31 H31            0.9649    -2.3027     0.2831 H       
  32 H32            1.9012     2.5347     0.5807 H       
  33 H33            3.3124    -2.7208     0.1497 H       
  34 H34            4.4874    -1.3847     0.1998 H       
  35 H35            4.9532    -3.1002     3.4076 H       
  36 H36           -0.7919    -1.9203    -1.7363 H       
  37 H37           -3.1021    -2.6980    -2.0699 H       
  38 H38           -4.3418    -0.5578     1.4058 H       
  39 H39           -1.1321     0.0516     2.6621 H       
  40 H40           -1.6476     1.4680     1.7153 H       
  41 H41           -6.1492     1.0654     3.5229 H       
  42 H42           -5.2450     2.1768     4.5992 H       
  43 H43           -3.7730     2.6442     2.8912 H       
  44 H44           -4.6724     1.5325     1.8103 H       
  45 H45            3.8693     2.8684    -0.0384 H       
  46 H46            3.6294     2.8062     1.7243 H       
  47 H47            5.2613     2.6115     1.0408 H       
@<TRIPOS>BOND
   1    1    2 ar
   2    1    6 ar
   3    1   30 1
   4    2    3 ar
   5    2   11 1
   6    3    4 ar
   7    3   31 1
   8    4    5 ar
   9    4    7 1
  10    5    6 ar
  11    5   24 1
  12    6   32 1
  13    7    8 1
  14    7   33 1
  15    7   34 1
  16    8    9 2
  17    8   10 1
  18   10   35 1
  19   11   12 ar
  20   11   13 ar
  21   12   17 1
  22   12   16 ar
  23   13   14 ar
  24   13   36 1
  25   14   15 ar
  26   14   37 1
  27   15   16 ar
  28   15   26 1
  29   16   38 1
  30   17   18 1
  31   17   39 1
  32   17   40 1
  33   18   19 am
  34   18   22 1
  35   19   20 1
  36   19   23 2
  37   20   21 1
  38   21   22 1
  39   21   41 1
  40   21   42 1
  41   22   43 1
  42   22   44 1
  43   24   25 1
  44   25   45 1
  45   25   46 1
  46   25   47 1
  47   26   27 1
  48   26   28 1
  49   26   29 1

#	End of record

