#	Name: ASD00431125
#	Creating user name:	WinNT
#	Creation time:	15. 06. 2019 18:35

#	Modifying user name:	WinNT
#	Modification time:	15. 06. 2019 18:35

#	Program:	/corina/corina34_cracker 3.40 0067  02.08.2006

@<TRIPOS>MOLECULE
ASD00431125
  54   56    0    0    0
SMALL
NO_CHARGES


@<TRIPOS>ATOM
   1 C1            -0.4701     1.7341    -0.7749 C.2     
   2 C2            -0.7153     0.3065    -1.1905 C.3     
   3 C3             0.5916    -0.4835    -1.0971 C.3     
   4 O4             0.6406     2.0852    -0.4374 O.2     
   5 N5            -1.4839     2.6222    -0.7837 N.am    
   6 C6            -1.2455     4.0100    -0.3798 C.3     
   7 C7            -0.7298     4.8087    -1.5785 C.3     
   8 O8            -3.7541     4.4418    -0.4143 O.3     
   9 N9            -4.6004     5.0556     0.1929 N.2     
  10 C10           -4.0795     5.7214     1.1976 C.2     
  11 C11           -2.6814     5.4459     1.1701 C.2     
  12 C12           -2.5335     4.6182     0.1125 C.2     
  13 S13           -4.0717     7.4657     3.5008 S.3     
  14 C14           -5.6056     8.0790     3.9404 C.2     
  15 N15           -6.5175     7.6326     3.1325 N.2     
  16 C16           -6.1232     6.8297     2.1687 C.2     
  17 C17           -4.7967     6.5815     2.1604 C.2     
  18 O18           -5.8361     8.9113     4.9835 O.3     
  19 C19           -7.1278     9.1923     5.3026 C.ar    
  20 C20           -7.4132    10.1753     6.2409 C.ar    
  21 C21           -8.7260    10.4607     6.5643 C.ar    
  22 C22           -9.7581     9.7651     5.9515 C.ar    
  23 C23           -9.4726     8.7831     5.0148 C.ar    
  24 C24           -8.1603     8.5013     4.6868 C.ar    
  25 O25          -11.0499    10.0459     6.2697 O.3     
  26 C26          -12.0618     9.2910     5.6001 C.3     
  27 C27          -13.4406     9.7442     6.0844 C.3     
  28 C28          -14.5254     9.0258     5.2794 C.3     
  29 C29          -13.5971     9.4044     7.5680 C.3     
  30 Cl30          -6.1213    11.0450     7.0078 Cl      
  31 H31           -1.4585    -0.1414    -0.5308 H       
  32 H32           -1.0806     0.2845    -2.2172 H       
  33 H33            1.3348    -0.0357    -1.7568 H       
  34 H34            0.9569    -0.4616    -0.0704 H       
  35 H35            0.4142    -1.5161    -1.3977 H       
  36 H36           -2.3714     2.3423    -1.0575 H       
  37 H37           -0.5040     4.0338     0.4188 H       
  38 H38           -0.5524     5.8413    -1.2780 H       
  39 H39            0.2018     4.3688    -1.9346 H       
  40 H40           -1.4713     4.7850    -2.3771 H       
  41 H41           -1.9175     5.8137     1.8391 H       
  42 H42           -6.8032     6.4048     1.4452 H       
  43 H43           -8.9485    11.2249     7.2943 H       
  44 H44          -10.2763     8.2414     4.5385 H       
  45 H45           -7.9386     7.7398     3.9538 H       
  46 H46          -11.9834     9.4518     4.5249 H       
  47 H47          -11.9297     8.2316     5.8197 H       
  48 H48          -13.5385    10.8209     5.9460 H       
  49 H49          -14.4275     7.9490     5.4179 H       
  50 H50          -15.5076     9.3486     5.6244 H       
  51 H51          -14.4138     9.2678     4.2225 H       
  52 H52          -12.8243     9.9162     8.1414 H       
  53 H53          -14.5794     9.7273     7.9130 H       
  54 H54          -13.4992     8.3277     7.7064 H       
@<TRIPOS>BOND
   1    1    2 1
   2    1    4 2
   3    1    5 am
   4    2    3 1
   5    2   31 1
   6    2   32 1
   7    3   33 1
   8    3   34 1
   9    3   35 1
  10    5    6 1
  11    5   36 1
  12    6    7 1
  13    6   12 1
  14    6   37 1
  15    7   38 1
  16    7   39 1
  17    7   40 1
  18    8    9 1
  19    8   12 1
  20    9   10 2
  21   10   11 1
  22   10   17 1
  23   11   12 2
  24   11   41 1
  25   13   14 1
  26   13   17 1
  27   14   15 2
  28   14   18 1
  29   15   16 1
  30   16   17 2
  31   16   42 1
  32   18   19 1
  33   19   20 ar
  34   19   24 ar
  35   20   21 ar
  36   20   30 1
  37   21   22 ar
  38   21   43 1
  39   22   23 ar
  40   22   25 1
  41   23   24 ar
  42   23   44 1
  43   24   45 1
  44   25   26 1
  45   26   27 1
  46   26   46 1
  47   26   47 1
  48   27   28 1
  49   27   29 1
  50   27   48 1
  51   28   49 1
  52   28   50 1
  53   28   51 1
  54   29   52 1
  55   29   53 1
  56   29   54 1

#	End of record

