#	Name: ASD03910081
#	Creating user name:	WinNT
#	Creation time:	15. 06. 2019 20:47

#	Modifying user name:	WinNT
#	Modification time:	15. 06. 2019 20:47

#	Program:	/corina/corina34_cracker 3.40 0067  02.08.2006

@<TRIPOS>MOLECULE
ASD03910081
  27   27    0    0    0
SMALL
NO_CHARGES


@<TRIPOS>ATOM
   1 C1            -0.0170     1.4000     0.0097 C.ar    
   2 C2             0.0021    -0.0041     0.0020 C.ar    
   3 C3             1.2273    -0.6864    -0.0134 C.ar    
   4 C4             2.4282     0.0381    -0.0210 C.ar    
   5 C5             2.3985     1.4420    -0.0132 C.ar    
   6 C6             1.1787     2.1152     0.0022 C.ar    
   7 C7            -1.3096     2.1214     0.0198 C.2     
   8 O8            -2.3522     1.4991     0.0213 O.2     
   9 O9            -1.3291     3.4681     0.0272 O.3     
  10 C10           -1.2701    -0.7635     0.0106 C.2     
  11 O11           -1.8018    -1.0690    -1.0372 O.2     
  12 O12           -1.8367    -1.1149     1.1808 O.3     
  13 C13            1.2530    -2.1664    -0.0211 C.2     
  14 O14            1.2532    -2.7681    -1.0758 O.2     
  15 O15            1.2761    -2.8456     1.1418 O.3     
  16 C16            3.7259    -0.6766    -0.0368 C.2     
  17 O17            4.2477    -0.9641    -1.0946 O.2     
  18 O18            4.3267    -1.0073     1.1223 O.3     
  19 C19            3.6653     2.2080    -0.0212 C.2     
  20 O20            4.7288     1.6222    -0.0346 O.2     
  21 O21            3.6381     3.5545    -0.0137 O.3     
  22 H22            1.1600     3.1951     0.0078 H       
  23 H23           -2.1970     3.8945     0.0336 H       
  24 H24           -2.6663    -1.6096     1.1358 H       
  25 H25            1.2923    -3.8108     1.0861 H       
  26 H26            5.1720    -1.4728     1.0614 H       
  27 H27            4.4906     4.0108    -0.0195 H       
@<TRIPOS>BOND
   1    1    2 ar
   2    1    6 ar
   3    1    7 1
   4    2    3 ar
   5    2   10 1
   6    3    4 ar
   7    3   13 1
   8    4    5 ar
   9    4   16 1
  10    5    6 ar
  11    5   19 1
  12    6   22 1
  13    7    8 2
  14    7    9 1
  15    9   23 1
  16   10   11 2
  17   10   12 1
  18   12   24 1
  19   13   14 2
  20   13   15 1
  21   15   25 1
  22   16   17 2
  23   16   18 1
  24   18   26 1
  25   19   20 2
  26   19   21 1
  27   21   27 1

#	End of record

