#	Name: ASD05380013
#	Creating user name:	WinNT
#	Creation time:	15. 06. 2019 20:59

#	Modifying user name:	WinNT
#	Modification time:	15. 06. 2019 20:59

#	Program:	/corina/corina34_cracker 3.40 0067  02.08.2006

@<TRIPOS>MOLECULE
ASD05380013
  50   54    0    0    0
SMALL
NO_CHARGES


@<TRIPOS>ATOM
   1 C1            -0.3122     1.6493     0.3436 C.ar    
   2 C2            -0.3170     0.2627     0.0715 C.ar    
   3 C3             0.8934     2.3149     0.5545 C.ar    
   4 C4             2.0767     1.6114     0.4955 C.ar    
   5 C5             2.0757     0.2489     0.2279 C.ar    
   6 C6             0.8951    -0.4279     0.0174 C.ar    
   7 C7             0.9032     3.7937     0.8445 C.3     
   8 N8            -1.5027    -0.3642    -0.1305 N.2     
   9 C9            -2.6299     0.2785    -0.0798 C.2     
  10 N10           -2.7195     1.6115     0.1750 N.am    
  11 C11           -1.6053     2.3462     0.4001 C.2     
  12 C12           -3.9779     2.2289     0.2111 C.ar    
  13 C13           -4.6471     2.3769     1.4204 C.ar    
  14 C14           -4.5570     2.6997    -0.9616 C.ar    
  15 C15           -5.7988     3.3083    -0.9218 C.ar    
  16 C16           -6.4637     3.4485     0.2823 C.ar    
  17 C17           -5.8886     2.9866     1.4518 C.ar    
  18 C18           -3.9035    -0.4917    -0.3157 C.3     
  19 N19           -3.6699    -1.5229    -1.3297 N.pl3   
  20 C20           -4.7248    -2.0005    -2.0863 C.ar    
  21 N21           -5.9578    -1.5355    -1.9071 N.ar    
  22 O22           -1.6707     3.5399     0.6298 O.2     
  23 C23           -4.5200    -2.9837    -3.0661 C.ar    
  24 C24           -5.6257    -3.4364    -3.8096 C.ar    
  25 N25           -6.8231    -2.9124    -3.5529 N.ar    
  26 C26           -6.9678    -1.9885    -2.6276 C.ar    
  27 C27           -3.3630    -3.7264    -3.5622 C.2     
  28 C28           -3.8118    -4.5445    -4.5282 C.2     
  29 N29           -5.1638    -4.3801    -4.6853 N.pl3   
  30 F30           -3.9078     2.5636    -2.1385 F       
  31 F31           -4.0861     1.9256     2.5635 F       
  32 C32           -4.3494    -1.1524     0.9903 C.3     
  33 H33            3.0131     2.1242     0.6585 H       
  34 H34            3.0125    -0.2867     0.1846 H       
  35 H35            0.9069    -1.4879    -0.1896 H       
  36 H36            0.7232     3.9568     1.9071 H       
  37 H37            1.8726     4.2110     0.5720 H       
  38 H38            0.1209     4.2830     0.2642 H       
  39 H39           -6.2492     3.6747    -1.8324 H       
  40 H40           -7.4330     3.9240     0.3101 H       
  41 H41           -6.4111     3.0980     2.3903 H       
  42 H42           -4.6810     0.1892    -0.6624 H       
  43 H43           -2.7754    -1.8707    -1.4706 H       
  44 H44           -7.9532    -1.5840    -2.4497 H       
  45 H45           -2.3433    -3.6348    -3.2183 H       
  46 H46           -3.1993    -5.2289    -5.0964 H       
  47 H47           -5.7123    -4.8625    -5.3235 H       
  48 H48           -4.4652    -0.3909     1.7616 H       
  49 H49           -5.3016    -1.6594     0.8343 H       
  50 H50           -3.5990    -1.8774     1.3053 H       
@<TRIPOS>BOND
   1    1    2 ar
   2    1    3 ar
   3    1   11 1
   4    2    8 1
   5    2    6 ar
   6    3    4 ar
   7    3    7 1
   8    4    5 ar
   9    4   33 1
  10    5    6 ar
  11    5   34 1
  12    6   35 1
  13    7   36 1
  14    7   37 1
  15    7   38 1
  16    8    9 2
  17    9   10 1
  18    9   18 1
  19   10   11 am
  20   10   12 1
  21   11   22 2
  22   12   13 ar
  23   12   14 ar
  24   13   31 1
  25   13   17 ar
  26   14   15 ar
  27   14   30 1
  28   15   16 ar
  29   15   39 1
  30   16   17 ar
  31   16   40 1
  32   17   41 1
  33   18   19 1
  34   18   32 1
  35   18   42 1
  36   19   20 1
  37   19   43 1
  38   20   21 ar
  39   20   23 ar
  40   21   26 ar
  41   23   24 ar
  42   23   27 1
  43   24   25 ar
  44   24   29 1
  45   25   26 ar
  46   26   44 1
  47   27   28 2
  48   27   45 1
  49   28   29 1
  50   28   46 1
  51   29   47 1
  52   32   48 1
  53   32   49 1
  54   32   50 1

#	End of record

