#	Name: ASD01001067
#	Creating user name:	WinNT
#	Creation time:	15. 06. 2019 18:55

#	Modifying user name:	WinNT
#	Modification time:	15. 06. 2019 18:55

#	Program:	/corina/corina34_cracker 3.40 0067  02.08.2006

@<TRIPOS>MOLECULE
ASD01001067
  52   54    0    0    0
SMALL
NO_CHARGES


@<TRIPOS>ATOM
   1 C1             0.6943     1.2385     2.1778 C.ar    
   2 C2             0.9571     1.6210     0.8756 C.ar    
   3 C3             1.4281     0.2227     2.7612 C.ar    
   4 C4             1.9538     0.9877     0.1570 C.ar    
   5 C5             2.4248    -0.4106     2.0426 C.ar    
   6 C6             2.6879    -0.0278     0.7407 C.ar    
   7 C7             3.7748    -0.7179    -0.0426 C.3     
   8 C8             3.5840    -2.2104     0.0410 C.ar    
   9 C9             3.7087    -0.2830    -1.4840 C.ar    
  10 S10            5.3924    -0.2755     0.6489 S.3     
  11 C11            4.6758    -3.0526    -0.0606 C.ar    
  12 C12            2.3180    -2.7350     0.2250 C.ar    
  13 C13            4.7782     0.3809    -2.0554 C.ar    
  14 C14            2.5809    -0.5529    -2.2363 C.ar    
  15 C15            5.3624     1.5382     0.6294 C.3     
  16 C16            4.5035    -4.4211     0.0157 C.ar    
  17 C17            2.1405    -4.1028     0.3029 C.ar    
  18 C18            4.7175     0.7798    -3.3775 C.ar    
  19 C19            2.5203    -0.1540    -3.5585 C.ar    
  20 C20            6.7262     2.0756     1.0675 C.3     
  21 C21            3.2336    -4.9502     0.1950 C.ar    
  22 C22            3.5876     0.5146    -4.1284 C.ar    
  23 C23            6.6640     3.6008     1.1713 C.3     
  24 O24            7.9003     4.0937     1.6915 O.3     
  25 H25            7.9323     5.0557     1.7845 H       
  26 N26            7.7437     1.6932     0.0794 N.3     
  27 O27            3.0616    -6.2961     0.2713 O.3     
  28 C28            4.2318    -7.1075     0.1519 C.3     
  29 H29           -0.0814     1.7364     2.7407 H       
  30 H30            0.3835     2.4144     0.4196 H       
  31 H31            1.2230    -0.0759     3.7787 H       
  32 H32            2.1586     1.2861    -0.8605 H       
  33 H33            2.9986    -1.2038     2.4987 H       
  34 H34            5.6642    -2.6402    -0.2002 H       
  35 H35            1.4673    -2.0749     0.3082 H       
  36 H36            5.6610     0.5881    -1.4687 H       
  37 H37            1.7473    -1.0757    -1.7913 H       
  38 H38            5.1413     1.8871    -0.3793 H       
  39 H39            4.5937     1.8962     1.3142 H       
  40 H40            5.3566    -5.0785    -0.0645 H       
  41 H41            1.1514    -4.5121     0.4466 H       
  42 H42            5.5528     1.2991    -3.8237 H       
  43 H43            1.6393    -0.3652    -4.1464 H       
  44 H44            6.9872     1.6557     2.0389 H       
  45 H45            3.5403     0.8262    -5.1613 H       
  46 H46            6.4908     4.0255     0.1825 H       
  47 H47            5.8498     3.8868     1.8372 H       
  48 H48            7.5242     2.0706    -0.8303 H       
  49 H49            8.6637     1.9807     0.3778 H       
  50 H50            3.9546    -8.1588     0.2301 H       
  51 H51            4.7023    -6.9267    -0.8145 H       
  52 H52            4.9312    -6.8560     0.9492 H       
@<TRIPOS>BOND
   1    1    2 ar
   2    1    3 ar
   3    1   29 1
   4    2    4 ar
   5    2   30 1
   6    3    5 ar
   7    3   31 1
   8    4    6 ar
   9    4   32 1
  10    5    6 ar
  11    5   33 1
  12    6    7 1
  13    7    8 1
  14    7    9 1
  15    7   10 1
  16    8   11 ar
  17    8   12 ar
  18    9   13 ar
  19    9   14 ar
  20   10   15 1
  21   11   16 ar
  22   11   34 1
  23   12   17 ar
  24   12   35 1
  25   13   18 ar
  26   13   36 1
  27   14   19 ar
  28   14   37 1
  29   15   20 1
  30   15   38 1
  31   15   39 1
  32   16   21 ar
  33   16   40 1
  34   17   21 ar
  35   17   41 1
  36   18   22 ar
  37   18   42 1
  38   19   22 ar
  39   19   43 1
  40   20   23 1
  41   20   26 1
  42   20   44 1
  43   21   27 1
  44   22   45 1
  45   23   24 1
  46   23   46 1
  47   23   47 1
  48   24   25 1
  49   26   48 1
  50   26   49 1
  51   27   28 1
  52   28   50 1
  53   28   51 1
  54   28   52 1

#	End of record

