#	Name: ASD01350004
#	Creating user name:	WinNT
#	Creation time:	15. 06. 2019 19:16

#	Modifying user name:	WinNT
#	Modification time:	15. 06. 2019 19:16

#	Program:	/corina/corina34_cracker 3.40 0067  02.08.2006

@<TRIPOS>MOLECULE
ASD01350004
  58   61    0    0    0
SMALL
NO_CHARGES


@<TRIPOS>ATOM
   1 O1            -0.3400     1.5876     0.3942 O.3     
   2 C2            -0.0980     0.2013     0.1458 C.3     
   3 C3             0.8482     2.3689     0.5352 C.3     
   4 C4             1.2670     2.8943    -0.8137 C.ar    
   5 C5             0.5817     3.5253     1.4641 C.ar    
   6 C6            -1.4333    -0.5336     0.0129 C.3     
   7 N7            -2.1438    -0.0470    -1.1772 N.3     
   8 C8            -1.5544    -0.5983    -2.4041 C.3     
   9 C9            -2.2223     0.0403    -3.6240 C.3     
  10 C10           -3.7260    -0.2458    -3.5847 C.3     
  11 C11           -4.3065     0.2956    -2.2753 C.3     
  12 C12           -3.5782    -0.3503    -1.0945 C.3     
  13 C13            1.5759     3.9723     2.3142 C.ar    
  14 C14            1.3314     5.0330     3.1663 C.ar    
  15 C15            0.0929     5.6470     3.1679 C.ar    
  16 C16           -0.9010     5.2005     2.3172 C.ar    
  17 C17           -0.6552     4.1426     1.4621 C.ar    
  18 C18            2.6052     2.9242    -1.1587 C.ar    
  19 C19            2.9894     3.4062    -2.3960 C.ar    
  20 C20            2.0353     3.8579    -3.2885 C.ar    
  21 C21            0.6969     3.8272    -2.9438 C.ar    
  22 C22            0.3124     3.3411    -1.7082 C.ar    
  23 C23           -4.3981     0.4310    -4.7514 C.ar    
  24 O24           -3.9460    -1.6559    -3.6576 O.3     
  25 C25           -5.5382    -0.1195    -5.3065 C.ar    
  26 C26           -6.1550     0.5007    -6.3766 C.ar    
  27 C27           -5.6312     1.6729    -6.8922 C.ar    
  28 C28           -4.4902     2.2234    -6.3363 C.ar    
  29 C29           -3.8775     1.6053    -5.2626 C.ar    
  30 Cl30          -6.4051     2.4522    -8.2366 Cl      
  31 H31            0.4706     0.0915    -0.7776 H       
  32 H32            0.4692    -0.2226     0.9744 H       
  33 H33            1.6443     1.7484     0.9466 H       
  34 H34           -1.2508    -1.6038    -0.0852 H       
  35 H35           -2.0399    -0.3482     0.8993 H       
  36 H36           -0.4858    -0.3843    -2.4215 H       
  37 H37           -1.7091    -1.6770    -2.4284 H       
  38 H38           -2.0562     1.1174    -3.6076 H       
  39 H39           -1.7955    -0.3805    -4.5344 H       
  40 H40           -4.1732     1.3768    -2.2377 H       
  41 H41           -5.3688     0.0573    -2.2222 H       
  42 H42           -3.7234    -1.4302    -1.1249 H       
  43 H43           -3.9795     0.0437    -0.1608 H       
  44 H44            2.5435     3.4926     2.3129 H       
  45 H45            2.1079     5.3818     3.8309 H       
  46 H46           -0.0983     6.4752     3.8342 H       
  47 H47           -1.8688     5.6800     2.3188 H       
  48 H48           -1.4317     3.7938     0.7974 H       
  49 H49            3.3507     2.5713    -0.4615 H       
  50 H50            4.0350     3.4302    -2.6653 H       
  51 H51            2.3355     4.2351    -4.2549 H       
  52 H52           -0.0485     4.1804    -3.6410 H       
  53 H53           -0.7332     3.3171    -1.4389 H       
  54 H54           -4.8787    -1.9100    -3.6376 H       
  55 H55           -5.9467    -1.0347    -4.9042 H       
  56 H56           -7.0455     0.0703    -6.8104 H       
  57 H57           -4.0809     3.1384    -6.7383 H       
  58 H58           -2.9868     2.0349    -4.8285 H       
@<TRIPOS>BOND
   1    1    2 1
   2    1    3 1
   3    2    6 1
   4    2   31 1
   5    2   32 1
   6    3    4 1
   7    3    5 1
   8    3   33 1
   9    4   18 ar
  10    4   22 ar
  11    5   13 ar
  12    5   17 ar
  13    6    7 1
  14    6   34 1
  15    6   35 1
  16    7    8 1
  17    7   12 1
  18    8    9 1
  19    8   36 1
  20    8   37 1
  21    9   10 1
  22    9   38 1
  23    9   39 1
  24   10   11 1
  25   10   23 1
  26   10   24 1
  27   11   12 1
  28   11   40 1
  29   11   41 1
  30   12   42 1
  31   12   43 1
  32   13   14 ar
  33   13   44 1
  34   14   15 ar
  35   14   45 1
  36   15   16 ar
  37   15   46 1
  38   16   17 ar
  39   16   47 1
  40   17   48 1
  41   18   19 ar
  42   18   49 1
  43   19   20 ar
  44   19   50 1
  45   20   21 ar
  46   20   51 1
  47   21   22 ar
  48   21   52 1
  49   22   53 1
  50   23   25 ar
  51   23   29 ar
  52   24   54 1
  53   25   26 ar
  54   25   55 1
  55   26   27 ar
  56   26   56 1
  57   27   28 ar
  58   27   30 1
  59   28   29 ar
  60   28   57 1
  61   29   58 1

#	End of record

