#	Name: ASD01870038
#	Creating user name:	WinNT
#	Creation time:	15. 06. 2019 19:38

#	Modifying user name:	WinNT
#	Modification time:	15. 06. 2019 19:38

#	Program:	/corina/corina34_cracker 3.40 0067  02.08.2006

@<TRIPOS>MOLECULE
ASD01870038
  41   45    0    0    0
SMALL
NO_CHARGES


@<TRIPOS>ATOM
   1 C1            -0.0162     1.3766     0.0394 C.ar    
   2 C2             0.0016    -0.0033    -0.0286 C.ar    
   3 N3             1.1343    -0.6675    -0.0852 N.ar    
   4 C4             2.3252    -0.0562    -0.0810 C.ar    
   5 C5             2.3957     1.3311    -0.0151 C.ar    
   6 C6             1.1859     2.0706     0.0473 C.ar    
   7 S7             3.9401    -0.7471    -0.1493 S.3     
   8 C8             4.7114     0.8277    -0.0893 C.2     
   9 C9             3.7720     1.8346    -0.0201 C.2     
  10 C10            6.0878     1.1778    -0.1022 C.2     
  11 N11            6.4262     2.4812    -0.0465 N.am    
  12 C12            5.4577     3.4323     0.0205 C.2     
  13 N13            4.1967     3.1266     0.0335 N.2     
  14 N14            1.2043     3.4566     0.1140 N.3     
  15 C15            7.7760     2.8556    -0.0573 C.ar    
  16 O16            6.9478     0.3146    -0.1623 O.2     
  17 C17            0.4997     4.0481    -1.0313 C.3     
  18 C18            0.6364     3.9302     1.3833 C.3     
  19 C19            8.5833     2.5447     1.0227 C.ar    
  20 C20            9.9230     2.9161     1.0114 C.ar    
  21 C21           10.4397     3.6046    -0.1015 C.ar    
  22 C22            9.6092     3.9090    -1.1827 C.ar    
  23 C23            8.2971     3.5335    -1.1586 C.ar    
  24 N24           10.9570     2.7577     1.9072 N.pl3   
  25 C25           12.0996     3.3180     1.4024 C.2     
  26 C26           11.8544     3.8460     0.1929 C.2     
  27 H27           -0.9547     1.9093     0.0813 H       
  28 H28           -0.9322    -0.5459    -0.0350 H       
  29 H29            5.7458     4.4722     0.0645 H       
  30 H30           -0.5372     3.7120    -1.0329 H       
  31 H31            0.5293     5.1350    -0.9541 H       
  32 H32            0.9842     3.7362    -1.9565 H       
  33 H33            1.2203     3.5326     2.2134 H       
  34 H34            0.6631     5.0196     1.4092 H       
  35 H35           -0.3955     3.5899     1.4691 H       
  36 H36            8.1742     2.0161     1.8710 H       
  37 H37           10.0052     4.4374    -2.0373 H       
  38 H38            7.6564     3.7692    -1.9955 H       
  39 H39           10.8862     2.3155     2.7676 H       
  40 H40           13.0563     3.3332     1.9033 H       
  41 H41           12.5655     4.3526    -0.4429 H       
@<TRIPOS>BOND
   1    1    2 ar
   2    1    6 ar
   3    1   27 1
   4    2    3 ar
   5    2   28 1
   6    3    4 ar
   7    4    5 ar
   8    4    7 1
   9    5    6 ar
  10    5    9 1
  11    6   14 1
  12    7    8 1
  13    8    9 2
  14    8   10 1
  15    9   13 1
  16   10   11 am
  17   10   16 2
  18   11   12 1
  19   11   15 1
  20   12   13 2
  21   12   29 1
  22   14   17 1
  23   14   18 1
  24   15   19 ar
  25   15   23 ar
  26   17   30 1
  27   17   31 1
  28   17   32 1
  29   18   33 1
  30   18   34 1
  31   18   35 1
  32   19   20 ar
  33   19   36 1
  34   20   21 ar
  35   20   24 1
  36   21   22 ar
  37   21   26 1
  38   22   23 ar
  39   22   37 1
  40   23   38 1
  41   24   25 1
  42   24   39 1
  43   25   26 2
  44   25   40 1
  45   26   41 1

#	End of record

