#	Name: ASD03490122
#	Creating user name:	WinNT
#	Creation time:	15. 06. 2019 20:42

#	Modifying user name:	WinNT
#	Modification time:	15. 06. 2019 20:42

#	Program:	/corina/corina34_cracker 3.40 0067  02.08.2006

@<TRIPOS>MOLECULE
ASD03490122
  70   73    0    0    0
SMALL
NO_CHARGES


@<TRIPOS>ATOM
   1 C1             0.2522     1.0992     0.3086 C.3     
   2 C2             2.7847    -8.3937     0.0572 C.3     
   3 C3             0.6067    -8.9486     1.1485 C.3     
   4 C4             2.2701    -7.5132     2.3381 C.3     
   5 C5             0.4370    -1.1668     1.3545 C.ar    
   6 C6             0.2592    -1.0148    -1.0308 C.ar    
   7 C7            -3.2941    -7.5190    -4.3088 C.ar    
   8 C8            -3.1724    -5.8339    -6.0196 C.ar    
   9 C9            -3.8182    -8.4099    -5.2246 C.ar    
  10 C10           -3.6965    -6.7258    -6.9344 C.ar    
  11 C11            0.4976    -2.5437     1.2655 C.ar    
  12 C12            0.3199    -2.3913    -1.1263 C.ar    
  13 C13            0.1733    -6.6270    -0.7241 C.2     
  14 C14           -8.9485    -9.1665    -8.7705 C.3     
  15 C15           -8.5000   -11.4806    -9.1963 C.3     
  16 C16           -4.7170    -8.4199    -8.7765 C.3     
  17 C17           -7.5853    -8.7827    -9.3522 C.3     
  18 C18           -7.1323   -11.1202    -9.7822 C.3     
  19 C19           -5.3024    -9.5396    -9.6393 C.3     
  20 C20           -1.6077    -5.7606    -2.8077 C.2     
  21 N21            1.2531    -5.4079     0.7505 N.2     
  22 N22           -2.4382    -5.3234    -3.7750 N.am    
  23 N23           -1.0185    -4.8788    -1.9761 N.am    
  24 O24           -1.3900    -6.9507    -2.6854 O.2     
  25 O25           -9.3960   -10.3809    -9.3789 O.3     
  26 O26           -4.5357    -8.8933    -7.4405 O.3     
  27 C27            0.3181    -0.4030     0.2080 C.ar    
  28 C28           -2.9696    -6.2282    -4.7039 C.ar    
  29 C29           -4.0200    -8.0155    -6.5391 C.ar    
  30 C30            0.4392    -3.1609     0.0232 C.ar    
  31 C31           -0.1591    -5.3312    -0.9752 C.2     
  32 C32            1.0565    -6.6412     0.3592 C.2     
  33 C33            1.6771    -7.8695     0.9734 C.3     
  34 N34           -6.6407    -9.8899    -9.1451 N.3     
  35 N35            0.5009    -4.5580    -0.0705 N.pl3   
  36 H36            1.2601     1.5112     0.2599 H       
  37 H37           -0.3415     1.4929    -0.5164 H       
  38 H38           -0.2098     1.3800     1.2551 H       
  39 H39            2.3622    -8.6475    -0.9150 H       
  40 H40            3.5473    -7.6249    -0.0676 H       
  41 H41            3.2336    -9.2821     0.5014 H       
  42 H42            1.0556    -9.8370     1.5927 H       
  43 H43           -0.1823    -8.5751     1.8012 H       
  44 H44            0.1842    -9.2024     0.1762 H       
  45 H45            3.0328    -6.7445     2.2133 H       
  46 H46            1.4811    -7.1398     2.9908 H       
  47 H47            2.7191    -8.4016     2.7823 H       
  48 H48            0.4779    -0.6863     2.3209 H       
  49 H49            0.1660    -0.4156    -1.9245 H       
  50 H50           -3.1408    -7.8249    -3.2845 H       
  51 H51           -2.9199    -4.8300    -6.3277 H       
  52 H52           -4.0706    -9.4140    -4.9174 H       
  53 H53           -3.8543    -6.4192    -7.9579 H       
  54 H54            0.5908    -3.1397     2.1613 H       
  55 H55            0.2738    -2.8685    -2.0940 H       
  56 H56           -0.1854    -7.4913    -1.2633 H       
  57 H57           -8.8573    -9.3108    -7.6940 H       
  58 H58           -9.6671    -8.3720    -8.9723 H       
  59 H59           -8.8942   -12.3597    -9.7060 H       
  60 H60           -8.3957   -11.6922    -8.1321 H       
  61 H61           -3.7554    -8.1106    -9.1861 H       
  62 H62           -5.3999    -7.5703    -8.7714 H       
  63 H63           -7.6873    -8.5861   -10.4194 H       
  64 H64           -7.2142    -7.8889    -8.8506 H       
  65 H65           -6.4304   -11.9328    -9.5946 H       
  66 H66           -7.2270   -10.9610   -10.8564 H       
  67 H67           -5.3739    -9.2020   -10.6733 H       
  68 H68           -4.6551   -10.4150    -9.5868 H       
  69 H69           -2.6681    -4.3826    -3.8281 H       
  70 H70           -1.1922    -3.9295    -2.0737 H       
@<TRIPOS>BOND
   1    1   27 1
   2    1   36 1
   3    1   37 1
   4    1   38 1
   5    2   33 1
   6    2   39 1
   7    2   40 1
   8    2   41 1
   9    3   33 1
  10    3   42 1
  11    3   43 1
  12    3   44 1
  13    4   33 1
  14    4   45 1
  15    4   46 1
  16    4   47 1
  17    5   11 ar
  18    5   27 ar
  19    5   48 1
  20    6   12 ar
  21    6   27 ar
  22    6   49 1
  23    7    9 ar
  24    7   28 ar
  25    7   50 1
  26    8   10 ar
  27    8   28 ar
  28    8   51 1
  29    9   29 ar
  30    9   52 1
  31   10   29 ar
  32   10   53 1
  33   11   30 ar
  34   11   54 1
  35   12   30 ar
  36   12   55 1
  37   13   31 2
  38   13   32 1
  39   13   56 1
  40   14   17 1
  41   14   25 1
  42   14   57 1
  43   14   58 1
  44   15   18 1
  45   15   25 1
  46   15   59 1
  47   15   60 1
  48   16   19 1
  49   16   26 1
  50   16   61 1
  51   16   62 1
  52   17   34 1
  53   17   63 1
  54   17   64 1
  55   18   34 1
  56   18   65 1
  57   18   66 1
  58   19   34 1
  59   19   67 1
  60   19   68 1
  61   20   22 am
  62   20   23 am
  63   20   24 2
  64   21   32 2
  65   21   35 1
  66   22   28 1
  67   22   69 1
  68   23   31 1
  69   23   70 1
  70   26   29 1
  71   30   35 1
  72   31   35 1
  73   32   33 1

#	End of record

