#	Name: ASD04590317
#	Creating user name:	WinNT
#	Creation time:	15. 06. 2019 20:50

#	Modifying user name:	WinNT
#	Modification time:	15. 06. 2019 20:50

#	Program:	/corina/corina34_cracker 3.40 0067  02.08.2006

@<TRIPOS>MOLECULE
ASD04590317
  40   44    0    0    0
SMALL
NO_CHARGES


@<TRIPOS>ATOM
   1 C1            -0.0167     1.3834     0.0096 C.ar    
   2 C2             0.0021    -0.0041     0.0020 C.ar    
   3 C3             1.1863    -0.6848    -0.0125 C.ar    
   4 C4             2.3948     0.0191    -0.0203 C.ar    
   5 C5             2.3756     1.4250    -0.0131 C.ar    
   6 C6             1.1624     2.0987     0.0022 C.ar    
   7 N7             3.6952    -0.3636    -0.0345 N.2     
   8 C8             4.4665     0.6967    -0.0364 C.2     
   9 N9             3.6970     1.8290    -0.0235 N.pl3   
  10 C10            5.9437     0.6731    -0.0508 C.2     
  11 C11            6.7566    -0.4840    -0.0653 C.2     
  12 C12            8.0504    -0.0800    -0.0760 C.2     
  13 N13            8.0626     1.2789    -0.0687 N.pl3   
  14 N14            6.7358     1.7273    -0.0583 N.2     
  15 N15            6.3043    -1.8134    -0.0676 N.am    
  16 C16            7.1923    -2.8272    -0.0821 C.2     
  17 C17            6.7173    -4.2235    -0.0845 C.ar    
  18 O18            8.3852    -2.5906    -0.0931 O.2     
  19 C19            7.1647    -6.6074    -0.1079 C.ar    
  20 C20            5.7921    -6.8580    -0.0897 C.ar    
  21 C21            4.8995    -5.8068    -0.0746 C.ar    
  22 C22            5.3515    -4.4995    -0.0719 C.ar    
  23 C23            7.6388    -5.2834    -0.1055 C.ar    
  24 N24            9.0087    -5.3417    -0.1255 N.pl3   
  25 C25            9.4209    -6.6471    -0.1404 C.2     
  26 C26            8.3548    -7.4625    -0.1308 C.2     
  27 H27           -0.9614     1.9069     0.0170 H       
  28 H28           -0.9290    -0.5513     0.0080 H       
  29 H29            1.1893    -1.7648    -0.0177 H       
  30 H30            1.1417     3.1785     0.0075 H       
  31 H31            4.0192     2.7439    -0.0216 H       
  32 H32            8.9176    -0.7237    -0.0882 H       
  33 H33            8.8532     1.8410    -0.0733 H       
  34 H34            5.3529    -2.0020    -0.0588 H       
  35 H35            5.4287    -7.8750    -0.0920 H       
  36 H36            3.8381    -6.0061    -0.0609 H       
  37 H37            4.6405    -3.6866    -0.0596 H       
  38 H38            9.5986    -4.5717    -0.1289 H       
  39 H39           10.4506    -6.9724    -0.1576 H       
  40 H40            8.3709    -8.5423    -0.1382 H       
@<TRIPOS>BOND
   1    1    2 ar
   2    1    6 ar
   3    1   27 1
   4    2    3 ar
   5    2   28 1
   6    3    4 ar
   7    3   29 1
   8    4    5 ar
   9    4    7 1
  10    5    6 ar
  11    5    9 1
  12    6   30 1
  13    7    8 2
  14    8    9 1
  15    8   10 1
  16    9   31 1
  17   10   11 1
  18   10   14 2
  19   11   12 2
  20   11   15 1
  21   12   13 1
  22   12   32 1
  23   13   14 1
  24   13   33 1
  25   15   16 am
  26   15   34 1
  27   16   17 1
  28   16   18 2
  29   17   22 ar
  30   17   23 ar
  31   19   20 ar
  32   19   23 ar
  33   19   26 1
  34   20   21 ar
  35   20   35 1
  36   21   22 ar
  37   21   36 1
  38   22   37 1
  39   23   24 1
  40   24   25 1
  41   24   38 1
  42   25   26 2
  43   25   39 1
  44   26   40 1

#	End of record

