#	Name: ASD07300632
#	Creating user name:	WinNT
#	Creation time:	15. 06. 2019 21:10

#	Modifying user name:	WinNT
#	Modification time:	15. 06. 2019 21:10

#	Program:	/corina/corina34_cracker 3.40 0067  02.08.2006

@<TRIPOS>MOLECULE
ASD07300632
  17   18    0    0    0
SMALL
NO_CHARGES


@<TRIPOS>ATOM
   1 C1            -0.0171     1.4066     0.0098 C.2     
   2 C2             0.0021    -0.0041     0.0020 C.2     
   3 N3             1.1776     2.0840     0.0020 N.pl3   
   4 N4             1.1511    -0.6381    -0.0124 N.2     
   5 C5             2.3106     0.0249    -0.0199 C.2     
   6 C6             2.3462     1.3738    -0.0126 C.2     
   7 N7            -0.9929     2.2994     0.0291 N.2     
   8 C8            -0.4651     3.5239     0.0277 C.2     
   9 C9             0.8848     3.4125     0.0119 C.2     
  10 C10           -1.2406     4.8159     0.0454 C.3     
  11 F11           -2.6054     4.5388     0.1792 F       
  12 F12           -0.8161     5.6000     1.1235 F       
  13 F13           -1.0204     5.5084    -1.1501 F       
  14 Cl14          -1.4868    -0.8967     0.0120 Cl      
  15 H15            3.2374    -0.5294    -0.0317 H       
  16 H16            3.2944     1.8908    -0.0190 H       
  17 H17            1.5954     4.2258     0.0096 H       
@<TRIPOS>BOND
   1    1    2 1
   2    1    3 1
   3    1    7 2
   4    2    4 2
   5    2   14 1
   6    3    6 1
   7    3    9 1
   8    4    5 1
   9    5    6 2
  10    5   15 1
  11    6   16 1
  12    7    8 1
  13    8    9 2
  14    8   10 1
  15    9   17 1
  16   10   11 1
  17   10   12 1
  18   10   13 1

#	End of record

