#	Name: ASD07931840
#	Creating user name:	WinNT
#	Creation time:	15. 06. 2019 21:13

#	Modifying user name:	WinNT
#	Modification time:	15. 06. 2019 21:13

#	Program:	/corina/corina34_cracker 3.40 0067  02.08.2006

@<TRIPOS>MOLECULE
ASD07931840
  44   47    0    0    0
SMALL
NO_CHARGES


@<TRIPOS>ATOM
   1 C1            -0.0180     1.4754     0.0102 C.2     
   2 C2             0.0021    -0.0041     0.0020 C.2     
   3 N3             1.1814     2.1509     0.0023 N.am    
   4 N4             1.1194    -0.6400     0.4288 N.am    
   5 C5             2.2493     0.1650     0.9143 C.3     
   6 C6             2.4261     1.3707    -0.0208 C.3     
   7 C7            -1.2008     2.1485     0.0195 C.2     
   8 C8            -1.2247     3.5486     0.0291 C.2     
   9 C9            -0.0458     4.2425     0.0303 C.2     
  10 C10            1.2139     3.4948     0.0143 C.2     
  11 O11           -0.9642    -0.6358    -0.3794 O.2     
  12 O12            2.2807     4.0852     0.0118 O.2     
  13 C13            0.4239     6.4402     1.0348 C.2     
  14 N14            0.2552     7.6848     0.6804 N.2     
  15 C15           -0.3161     7.7283    -0.5326 C.2     
  16 C16           -0.5113     6.4636    -0.9513 C.2     
  17 N17           -0.0431     5.6402     0.0404 N.pl3   
  18 C18           -0.6774     8.9771    -1.2948 C.3     
  19 C19            1.2002    -2.1026     0.4064 C.3     
  20 C20            0.0920    -2.7053     1.2876 C.3     
  21 C21           -0.7858    -3.5713     0.3607 C.3     
  22 C22            0.1480    -3.9285    -0.8222 C.3     
  23 C23            0.9571    -2.6234    -1.0252 C.3     
  24 O24            0.6688    -3.5158     2.3134 O.3     
  25 H25            2.0426     0.5136     1.9261 H       
  26 H26            3.1572    -0.4381     0.9099 H       
  27 H27            2.6247     1.0242    -1.0350 H       
  28 H28            3.2543     1.9881     0.3270 H       
  29 H29           -2.1297     1.5976     0.0190 H       
  30 H30           -2.1668     4.0767     0.0353 H       
  31 H31            0.8650     6.1025     1.9610 H       
  32 H32           -0.9521     6.1566    -1.8883 H       
  33 H33            0.1651     9.2797    -1.9167 H       
  34 H34           -1.5430     8.7793    -1.9270 H       
  35 H35           -0.9156     9.7756    -0.5921 H       
  36 H36            2.1780    -2.4283     0.7612 H       
  37 H37           -0.5059    -1.9095     1.7318 H       
  38 H38           -1.1100    -4.4748     0.8771 H       
  39 H39           -1.6464    -3.0022     0.0090 H       
  40 H40            0.8078    -4.7548    -0.5577 H       
  41 H41           -0.4318    -4.1662    -1.7141 H       
  42 H42            0.3780    -1.9012    -1.6007 H       
  43 H43            1.9048    -2.8352    -1.5202 H       
  44 H44            0.0204    -3.9245     2.9030 H       
@<TRIPOS>BOND
   1    1    2 1
   2    1    3 1
   3    1    7 2
   4    2    4 am
   5    2   11 2
   6    3    6 1
   7    3   10 am
   8    4    5 1
   9    4   19 1
  10    5    6 1
  11    5   25 1
  12    5   26 1
  13    6   27 1
  14    6   28 1
  15    7    8 1
  16    7   29 1
  17    8    9 2
  18    8   30 1
  19    9   10 1
  20    9   17 1
  21   10   12 2
  22   13   14 2
  23   13   17 1
  24   13   31 1
  25   14   15 1
  26   15   16 2
  27   15   18 1
  28   16   17 1
  29   16   32 1
  30   18   33 1
  31   18   34 1
  32   18   35 1
  33   19   20 1
  34   19   23 1
  35   19   36 1
  36   20   21 1
  37   20   24 1
  38   20   37 1
  39   21   22 1
  40   21   38 1
  41   21   39 1
  42   22   23 1
  43   22   40 1
  44   22   41 1
  45   23   42 1
  46   23   43 1
  47   24   44 1

#	End of record

