#	Name: ASD01912091
#	Creating user name:	WinNT
#	Creation time:	15. 06. 2019 19:59

#	Modifying user name:	WinNT
#	Modification time:	15. 06. 2019 19:59

#	Program:	/corina/corina34_cracker 3.40 0067  02.08.2006

@<TRIPOS>MOLECULE
ASD01912091
  59   63    0    0    0
SMALL
NO_CHARGES


@<TRIPOS>ATOM
   1 C1            -0.0048     1.4156     0.0522 C.2     
   2 C2            -0.0091     0.0108     0.0264 C.2     
   3 N3             1.2383    -0.4056    -0.0382 N.2     
   4 N4             2.0784     0.7149    -0.0558 N.pl3   
   5 C5             1.2942     1.8290     0.0006 C.2     
   6 C6             1.7663     3.2316     0.0045 C.ar    
   7 C7             3.0187     3.5505    -0.5207 C.ar    
   8 C8             3.4532     4.8601    -0.5141 C.ar    
   9 C9             2.6498     5.8559     0.0120 C.ar    
  10 C10            1.4068     5.5460     0.5344 C.ar    
  11 C11            0.9585     4.2411     0.5283 C.ar    
  12 C12           -1.2138    -0.8556     0.0654 C.ar    
  13 C13           -1.0786    -2.2417     0.0336 C.ar    
  14 C14           -2.2013    -3.0435     0.0705 C.ar    
  15 C15           -3.4611    -2.4719     0.1391 C.ar    
  16 C16           -3.6001    -1.0936     0.1704 C.ar    
  17 C17           -2.4828    -0.2848     0.1397 C.ar    
  18 F18           -4.5576    -3.2604     0.1750 F       
  19 C19            3.5418     0.6936    -0.1223 C.3     
  20 C20            3.9777     0.5824    -1.5605 C.2     
  21 N21            5.2899     0.5452    -1.8660 N.am    
  22 O22            3.1478     0.5264    -2.4432 O.2     
  23 C23            5.7370     0.4369    -3.2630 C.3     
  24 C24           -2.0563    -4.5431     0.0356 C.3     
  25 C25            6.7652     1.5409    -3.5320 C.3     
  26 N26            7.8360     1.4631    -2.5293 N.3     
  27 C27            7.3183     1.7088    -1.1767 C.3     
  28 C28            6.3128     0.6179    -0.8116 C.3     
  29 C29            8.8678     2.3408    -2.8341 C.2     
  30 N30           10.0016     2.5217    -2.1237 N.2     
  31 C31           10.6814     3.4354    -2.7720 C.2     
  32 O32            9.9562     3.7798    -3.8405 O.3     
  33 N33            8.9251     3.1413    -3.8648 N.2     
  34 C34           12.0271     3.9929    -2.3855 C.3     
  35 H35           -0.8746     2.0540     0.0997 H       
  36 H36            3.6469     2.7739    -0.9313 H       
  37 H37            4.4228     5.1082    -0.9201 H       
  38 H38            2.9945     6.8794     0.0153 H       
  39 H39            0.7842     6.3278     0.9437 H       
  40 H40           -0.0120     4.0004     0.9364 H       
  41 H41           -0.0967    -2.6882    -0.0202 H       
  42 H42           -4.5842    -0.6519     0.2235 H       
  43 H43           -2.5920     0.7894     0.1642 H       
  44 H44            3.9384     1.6135     0.3075 H       
  45 H45            3.9186    -0.1615     0.4388 H       
  46 H46            6.1957    -0.5383    -3.4261 H       
  47 H47            4.8844     0.5600    -3.9309 H       
  48 H48           -1.9739    -4.9239     1.0536 H       
  49 H49           -2.9300    -4.9815    -0.4466 H       
  50 H50           -1.1602    -4.8086    -0.5253 H       
  51 H51            7.1889     1.4086    -4.5275 H       
  52 H52            6.2786     2.5142    -3.4697 H       
  53 H53            8.1430     1.6983    -0.4641 H       
  54 H54            6.8239     2.6798    -1.1472 H       
  55 H55            5.8419     0.8581     0.1416 H       
  56 H56            6.8241    -0.3420    -0.7390 H       
  57 H57           12.8139     3.3928    -2.8425 H       
  58 H58           12.1072     5.0228    -2.7334 H       
  59 H59           12.1334     3.9665    -1.3010 H       
@<TRIPOS>BOND
   1    1    2 1
   2    1    5 2
   3    1   35 1
   4    2    3 2
   5    2   12 1
   6    3    4 1
   7    4    5 1
   8    4   19 1
   9    5    6 1
  10    6    7 ar
  11    6   11 ar
  12    7    8 ar
  13    7   36 1
  14    8    9 ar
  15    8   37 1
  16    9   10 ar
  17    9   38 1
  18   10   11 ar
  19   10   39 1
  20   11   40 1
  21   12   13 ar
  22   12   17 ar
  23   13   14 ar
  24   13   41 1
  25   14   15 ar
  26   14   24 1
  27   15   16 ar
  28   15   18 1
  29   16   17 ar
  30   16   42 1
  31   17   43 1
  32   19   20 1
  33   19   44 1
  34   19   45 1
  35   20   21 am
  36   20   22 2
  37   21   23 1
  38   21   28 1
  39   23   25 1
  40   23   46 1
  41   23   47 1
  42   24   48 1
  43   24   49 1
  44   24   50 1
  45   25   26 1
  46   25   51 1
  47   25   52 1
  48   26   27 1
  49   26   29 1
  50   27   28 1
  51   27   53 1
  52   27   54 1
  53   28   55 1
  54   28   56 1
  55   29   30 1
  56   29   33 2
  57   30   31 2
  58   31   32 1
  59   31   34 1
  60   32   33 1
  61   34   57 1
  62   34   58 1
  63   34   59 1

#	End of record

