#	Name: ASD03330084
#	Creating user name:	WinNT
#	Creation time:	15. 06. 2019 20:36

#	Modifying user name:	WinNT
#	Modification time:	15. 06. 2019 20:36

#	Program:	/corina/corina34_cracker 3.40 0067  02.08.2006

@<TRIPOS>MOLECULE
ASD03330084
  71   75    0    0    0
SMALL
NO_CHARGES


@<TRIPOS>ATOM
   1 C1             1.6418     0.4266    -1.0121 C.2     
   2 C2             1.2831    -0.6576    -0.2686 C.2     
   3 C3             2.9875     0.7279    -0.9798 C.2     
   4 C4             3.7392    -0.1208    -0.1997 C.2     
   5 S5             2.6983    -1.3431     0.5165 S.3     
   6 C6             5.1971    -0.0204     0.0042 C.ar    
   7 C7             5.7297    -0.0579     1.2966 C.ar    
   8 C8             6.0518     0.1066    -1.0932 C.ar    
   9 C9             7.4135     0.2001    -0.8959 C.ar    
  10 C10            7.9349     0.1677     0.3868 C.ar    
  11 C11            7.0944     0.0366     1.4796 C.ar    
  12 C12            3.5743     1.8687    -1.7230 C.ar    
  13 C13            3.3641     1.9904    -3.0960 C.ar    
  14 C14            4.3329     2.8252    -1.0495 C.ar    
  15 C15            4.8774     3.8852    -1.7439 C.ar    
  16 C16            4.6706     4.0006    -3.1117 C.ar    
  17 C17            3.9115     3.0528    -3.7843 C.ar    
  18 C18           -0.0818    -1.1757    -0.1422 C.2     
  19 O19           -1.0140    -0.4062     0.0007 O.2     
  20 O20            5.2082     5.0465    -3.7929 O.3     
  21 N21           -0.3049    -2.5042    -0.1842 N.am    
  22 C22           -1.6750    -3.0343    -0.1613 C.3     
  23 C23            0.8172    -3.4496    -0.2600 C.3     
  24 C24            0.5976    -4.3806    -1.4566 C.3     
  25 C25           -0.7762    -5.0440    -1.3364 C.3     
  26 C26           -1.8615    -3.9707    -1.3592 C.3     
  27 C27           -0.9818    -5.9864    -2.4942 C.ar    
  28 Cl28           4.6771    -0.2222     2.6673 Cl      
  29 Cl29           9.6504     0.2854     0.6254 Cl      
  30 C30           -0.8504    -5.8142    -0.0432 C.2     
  31 N31            0.1064    -6.7131     0.2616 N.am    
  32 O32           -1.7711    -5.6251     0.7233 O.2     
  33 S33            6.6029     4.7778    -4.3399 S.o2    
  34 C34            6.3282     3.6901    -5.7654 C.3     
  35 O35            7.5835     3.3671    -6.3669 O.3     
  36 C36           -1.3589    -7.7152    -4.6185 C.ar    
  37 C37           -2.3773    -7.5076    -3.7071 C.ar    
  38 C38           -2.1888    -6.6430    -2.6451 C.ar    
  39 C39           -0.1537    -7.0546    -4.4705 C.ar    
  40 C40            0.0349    -6.1901    -3.4085 C.ar    
  41 O41            7.0635     6.0525    -4.7668 O.2     
  42 O42            7.2596     4.0738    -3.2947 O.2     
  43 C43            8.3533     2.4150    -5.6300 C.3     
  44 H44            0.9295     1.0017    -1.5851 H       
  45 H45            5.6471     0.1313    -2.0942 H       
  46 H46            8.0751     0.2983    -1.7439 H       
  47 H47            7.5073     0.0124     2.4773 H       
  48 H48            2.7736     1.2534    -3.6199 H       
  49 H49            4.4936     2.7365     0.0148 H       
  50 H50            5.4651     4.6265    -1.2228 H       
  51 H51            3.7525     3.1454    -4.8485 H       
  52 H52           -1.8373    -3.5875     0.7638 H       
  53 H53           -2.3864    -2.2110    -0.2267 H       
  54 H54            1.7496    -2.9004    -0.3906 H       
  55 H55            0.8623    -4.0375     0.6568 H       
  56 H56            0.6432    -3.8031    -2.3800 H       
  57 H57            1.3722    -5.1474    -1.4679 H       
  58 H58           -2.8418    -4.4432    -1.2972 H       
  59 H59           -1.7898    -3.4006    -2.2854 H       
  60 H60            0.8780    -6.8153    -0.3173 H       
  61 H61            0.0235    -7.2578     1.0600 H       
  62 H62            5.8375     2.7748    -5.4348 H       
  63 H63            5.6964     4.1984    -6.4938 H       
  64 H64           -1.5062    -8.3907    -5.4482 H       
  65 H65           -3.3189    -8.0237    -3.8227 H       
  66 H66           -2.9845    -6.4808    -1.9331 H       
  67 H67            0.6420    -7.2168    -5.1826 H       
  68 H68            0.9762    -5.6735    -3.2932 H       
  69 H69            9.2907     2.2234    -6.1521 H       
  70 H70            8.5649     2.8099    -4.6363 H       
  71 H71            7.7913     1.4854    -5.5394 H       
@<TRIPOS>BOND
   1    1    2 2
   2    1    3 1
   3    1   44 1
   4    2   18 1
   5    2    5 1
   6    3    4 2
   7    3   12 1
   8    4    5 1
   9    4    6 1
  10    6    7 ar
  11    6    8 ar
  12    7   28 1
  13    7   11 ar
  14    8    9 ar
  15    8   45 1
  16    9   10 ar
  17    9   46 1
  18   10   11 ar
  19   10   29 1
  20   11   47 1
  21   12   13 ar
  22   12   14 ar
  23   13   17 ar
  24   13   48 1
  25   14   15 ar
  26   14   49 1
  27   15   16 ar
  28   15   50 1
  29   16   17 ar
  30   16   20 1
  31   17   51 1
  32   18   19 2
  33   18   21 am
  34   20   33 1
  35   21   22 1
  36   21   23 1
  37   22   26 1
  38   22   52 1
  39   22   53 1
  40   23   24 1
  41   23   54 1
  42   23   55 1
  43   24   25 1
  44   24   56 1
  45   24   57 1
  46   25   26 1
  47   25   27 1
  48   25   30 1
  49   26   58 1
  50   26   59 1
  51   27   38 ar
  52   27   40 ar
  53   30   31 am
  54   30   32 2
  55   31   60 1
  56   31   61 1
  57   33   34 1
  58   33   41 2
  59   33   42 2
  60   34   35 1
  61   34   62 1
  62   34   63 1
  63   35   43 1
  64   36   37 ar
  65   36   39 ar
  66   36   64 1
  67   37   38 ar
  68   37   65 1
  69   38   66 1
  70   39   40 ar
  71   39   67 1
  72   40   68 1
  73   43   69 1
  74   43   70 1
  75   43   71 1

#	End of record

