#	Name: ASD01890156
#	Creating user name:	WinNT
#	Creation time:	15. 06. 2019 19:50

#	Modifying user name:	WinNT
#	Modification time:	15. 06. 2019 19:50

#	Program:	/corina/corina34_cracker 3.40 0067  02.08.2006

@<TRIPOS>MOLECULE
ASD01890156
  35   36    0    0    0
SMALL
NO_CHARGES


@<TRIPOS>ATOM
   1 C1            -0.0293     1.4526    -0.0312 C.2     
   2 C2            -0.0042    -0.0085    -0.0463 C.2     
   3 C3             1.1749    -0.6626    -0.1146 C.2     
   4 C4             2.4501     0.1052    -0.3495 C.3     
   5 C5             3.0816     0.4689     0.9958 C.3     
   6 O6             1.0119     2.0782     0.0316 O.2     
   7 O7            -1.2072     2.1077    -0.0925 O.3     
   8 C8             1.2147    -2.1244     0.0401 C.ar    
   9 C9             1.0594    -2.7035     1.3068 C.ar    
  10 C10            1.0979    -4.0782     1.4418 C.ar    
  11 C11            1.2889    -4.8801     0.3312 C.ar    
  12 C12            1.4434    -4.3144    -0.9230 C.ar    
  13 C13            1.4019    -2.9452    -1.0769 C.ar    
  14 F14            0.8733    -1.9206     2.3920 F       
  15 C15            4.3569     1.2367     0.7608 C.ar    
  16 C16            4.3255     2.6154     0.6648 C.ar    
  17 C17            5.4948     3.3202     0.4494 C.ar    
  18 C18            6.6968     2.6456     0.3298 C.ar    
  19 C19            6.7275     1.2658     0.4260 C.ar    
  20 C20            5.5584     0.5625     0.6471 C.ar    
  21 Cl21           8.1657     3.5301     0.0586 Cl      
  22 H22           -0.9287    -0.5649    -0.0027 H       
  23 H23            3.1442    -0.5097    -0.9224 H       
  24 H24            2.2284     1.0165    -0.9050 H       
  25 H25            2.3875     1.0838     1.5686 H       
  26 H26            3.3033    -0.4424     1.5512 H       
  27 H27           -1.1229     3.0709    -0.0767 H       
  28 H28            0.9789    -4.5274     2.4167 H       
  29 H29            1.3180    -5.9539     0.4430 H       
  30 H30            1.5924    -4.9484    -1.7846 H       
  31 H31            1.5179    -2.5069    -2.0572 H       
  32 H32            3.3871     3.1419     0.7578 H       
  33 H33            5.4701     4.3973     0.3741 H       
  34 H34            7.6655     0.7387     0.3328 H       
  35 H35            5.5829    -0.5143     0.7266 H       
@<TRIPOS>BOND
   1    1    2 1
   2    1    6 2
   3    1    7 1
   4    2    3 2
   5    2   22 1
   6    3    4 1
   7    3    8 1
   8    4    5 1
   9    4   23 1
  10    4   24 1
  11    5   15 1
  12    5   25 1
  13    5   26 1
  14    7   27 1
  15    8    9 ar
  16    8   13 ar
  17    9   10 ar
  18    9   14 1
  19   10   11 ar
  20   10   28 1
  21   11   12 ar
  22   11   29 1
  23   12   13 ar
  24   12   30 1
  25   13   31 1
  26   15   16 ar
  27   15   20 ar
  28   16   17 ar
  29   16   32 1
  30   17   18 ar
  31   17   33 1
  32   18   19 ar
  33   18   21 1
  34   19   20 ar
  35   19   34 1
  36   20   35 1

#	End of record

