#	Name: ASD01811523
#	Creating user name:	WinNT
#	Creation time:	15. 06. 2019 19:26

#	Modifying user name:	WinNT
#	Modification time:	15. 06. 2019 19:26

#	Program:	/corina/corina34_cracker 3.40 0067  02.08.2006

@<TRIPOS>MOLECULE
ASD01811523
  67   71    0    0    0
SMALL
NO_CHARGES


@<TRIPOS>ATOM
   1 N1            -0.0186     1.3823    -0.4559 N.am    
   2 C2             0.1577     0.3071    -1.2492 C.2     
   3 O3             1.2454     0.0911    -1.7477 O.2     
   4 N4            -0.8719    -0.5287    -1.4900 N.am    
   5 O5            -0.8276    -4.0712    -2.0125 O.3     
   6 C6            -0.1530    -2.8994    -1.5394 C.3     
   7 C7            -0.6803    -1.6975    -2.3522 C.3     
   8 C8            -2.0430    -2.2266    -2.8768 C.3     
   9 C9            -1.7145    -3.7260    -3.0884 C.3     
  10 C10            1.0735     2.1912    -0.1206 C.ar    
  11 C11            0.8945     3.5562     0.0706 C.ar    
  12 C12            1.9696     4.3593     0.4013 C.ar    
  13 C13            3.2283     3.8112     0.5439 C.ar    
  14 C14            3.4184     2.4415     0.3545 C.ar    
  15 C15            2.3322     1.6301     0.0262 C.ar    
  16 C16           -0.4765     4.1626    -0.0837 C.3     
  17 C17           -0.9926     4.8509     1.1909 C.3     
  18 C18           -1.5526     5.9520     0.2751 C.3     
  19 C19           -0.4642     5.5551    -0.7362 C.3     
  20 C20            4.7658     1.8517     0.5062 C.2     
  21 O21            4.9126     0.8276     1.1443 O.2     
  22 N22            5.8311     2.4496    -0.0631 N.am    
  23 C23            7.1600     1.8256    -0.0038 C.3     
  24 C24            7.7162     1.7141    -1.4269 C.3     
  25 C25            7.6990     3.0949    -2.0866 C.3     
  26 C26            6.2584     3.6045    -2.1697 C.3     
  27 C27            5.6846     3.7347    -0.7600 C.3     
  28 F28            8.4650     3.9846    -1.3257 F       
  29 C29            8.2772     2.9953    -3.4747 C.ar    
  30 C30            8.6536     4.1440    -4.1480 C.ar    
  31 C31            9.1835     4.0601    -5.4189 C.ar    
  32 C32            9.3401     2.8122    -6.0255 C.ar    
  33 C33            8.9585     1.6570    -5.3401 C.ar    
  34 C34            8.4345     1.7552    -4.0678 C.ar    
  35 C35            9.8890     2.7176    -7.3447 C.1     
  36 N36           10.3245     2.6425    -8.3912 N.1     
  37 H37           -0.9029     1.5979    -0.1206 H       
  38 H38           -1.7397    -0.3564    -1.0923 H       
  39 H39           -0.3663    -2.7520    -0.4807 H       
  40 H40            0.9213    -3.0050    -1.6902 H       
  41 H41           -0.0100    -1.4647    -3.1797 H       
  42 H42           -2.8277    -2.0978    -2.1313 H       
  43 H43           -2.3147    -1.7474    -3.8173 H       
  44 H44           -1.2197    -3.8731    -4.0485 H       
  45 H45           -2.6243    -4.3238    -3.0353 H       
  46 H46            1.8244     5.4193     0.5483 H       
  47 H47            4.0660     4.4422     0.8018 H       
  48 H48            2.4724     0.5689    -0.1172 H       
  49 H49           -1.1952     3.4758    -0.5307 H       
  50 H50           -1.7631     4.2830     1.7123 H       
  51 H51           -0.1984     5.1957     1.8531 H       
  52 H52           -2.5661     5.7556    -0.0746 H       
  53 H53           -1.4297     6.9580     0.6763 H       
  54 H54            0.4745     6.0924    -0.6009 H       
  55 H55           -0.8081     5.5557    -1.7705 H       
  56 H56            7.8258     2.4406     0.6016 H       
  57 H57            7.0776     0.8313     0.4352 H       
  58 H58            8.7399     1.3417    -1.3892 H       
  59 H59            7.0995     1.0266    -2.0057 H       
  60 H60            6.2444     4.5776    -2.6607 H       
  61 H61            5.6554     2.8992    -2.7416 H       
  62 H62            4.6289     3.9997    -0.8196 H       
  63 H63            6.2276     4.5086    -0.2174 H       
  64 H64            8.5319     5.1085    -3.6776 H       
  65 H65            9.4762     4.9575    -5.9436 H       
  66 H66            9.0769     0.6887    -5.8035 H       
  67 H67            8.1427     0.8622    -3.5350 H       
@<TRIPOS>BOND
   1    1    2 am
   2    1   10 1
   3    1   37 1
   4    2    3 2
   5    2    4 am
   6    4    7 1
   7    4   38 1
   8    5    6 1
   9    5    9 1
  10    6    7 1
  11    6   39 1
  12    6   40 1
  13    7    8 1
  14    7   41 1
  15    8    9 1
  16    8   42 1
  17    8   43 1
  18    9   44 1
  19    9   45 1
  20   10   11 ar
  21   10   15 ar
  22   11   12 ar
  23   11   16 1
  24   12   13 ar
  25   12   46 1
  26   13   14 ar
  27   13   47 1
  28   14   15 ar
  29   14   20 1
  30   15   48 1
  31   16   17 1
  32   16   19 1
  33   16   49 1
  34   17   18 1
  35   17   50 1
  36   17   51 1
  37   18   19 1
  38   18   52 1
  39   18   53 1
  40   19   54 1
  41   19   55 1
  42   20   21 2
  43   20   22 am
  44   22   23 1
  45   22   27 1
  46   23   24 1
  47   23   56 1
  48   23   57 1
  49   24   25 1
  50   24   58 1
  51   24   59 1
  52   25   26 1
  53   25   28 1
  54   25   29 1
  55   26   27 1
  56   26   60 1
  57   26   61 1
  58   27   62 1
  59   27   63 1
  60   29   30 ar
  61   29   34 ar
  62   30   31 ar
  63   30   64 1
  64   31   32 ar
  65   31   65 1
  66   32   33 ar
  67   32   35 1
  68   33   34 ar
  69   33   66 1
  70   34   67 1
  71   35   36 3

#	End of record

