#	Name: ASD01915489
#	Creating user name:	WinNT
#	Creation time:	15. 06. 2019 20:05

#	Modifying user name:	WinNT
#	Modification time:	15. 06. 2019 20:05

#	Program:	/corina/corina34_cracker 3.40 0067  02.08.2006

@<TRIPOS>MOLECULE
ASD01915489
  43   46    0    0    0
SMALL
NO_CHARGES


@<TRIPOS>ATOM
   1 C1            -0.0544     1.2527     0.2120 C.ar    
   2 C2             0.0036    -0.1125     0.4735 C.ar    
   3 N3             1.0443     1.9522    -0.0293 N.ar    
   4 C4             2.2346     1.3901    -0.0332 C.ar    
   5 C5             2.3714     0.0271     0.2369 C.ar    
   6 C6             1.2323    -0.7440     0.4886 C.ar    
   7 C7             3.4639     2.2030    -0.3503 C.3     
   8 C8             4.6570     1.6807     0.4457 C.3     
   9 N9             4.7983     0.2347     0.2899 N.am    
  10 C10            3.7187    -0.5705     0.2716 C.2     
  11 O11            3.8540    -1.7789     0.2836 O.2     
  12 C12            6.0754    -0.3224     0.1578 C.ar    
  13 C13            6.4576    -0.9086    -1.0417 C.ar    
  14 O14           -1.2570     1.8771     0.1983 O.3     
  15 C15           -1.2568     3.2796    -0.0757 C.3     
  16 C16           -2.6720     3.7968    -0.0493 C.ar    
  17 C17           -3.2156     4.2627     1.1332 C.ar    
  18 C18           -4.5138     4.7371     1.1575 C.ar    
  19 C19           -5.2681     4.7460    -0.0009 C.ar    
  20 C20           -4.7242     4.2810    -1.1836 C.ar    
  21 C21           -3.4246     3.8106    -1.2087 C.ar    
  22 C22            7.7185    -1.4573    -1.1701 C.ar    
  23 C23            8.6014    -1.4232    -0.1039 C.ar    
  24 C24            8.2223    -0.8391     1.0931 C.ar    
  25 C25            6.9643    -0.2846     1.2241 C.ar    
  26 F26            9.8342    -1.9609    -0.2315 F       
  27 H27           -0.9008    -0.6717     0.6627 H       
  28 H28            1.3108    -1.8023     0.6891 H       
  29 H29            3.6805     2.1301    -1.4160 H       
  30 H30            3.2845     3.2462    -0.0901 H       
  31 H31            5.5649     2.1691     0.0917 H       
  32 H32            4.5137     1.9147     1.5005 H       
  33 H33            5.7691    -0.9358    -1.8734 H       
  34 H34           -0.6665     3.7974     0.6803 H       
  35 H35           -0.8232     3.4574    -1.0599 H       
  36 H36           -2.6262     4.2557     2.0382 H       
  37 H37           -4.9387     5.1004     2.0815 H       
  38 H38           -6.2826     5.1160     0.0182 H       
  39 H39           -5.3137     4.2876    -2.0885 H       
  40 H40           -2.9996     3.4472    -2.1327 H       
  41 H41            8.0160    -1.9137    -2.1027 H       
  42 H42            8.9125    -0.8135     1.9234 H       
  43 H43            6.6692     0.1712     2.1576 H       
@<TRIPOS>BOND
   1    1    2 ar
   2    1    3 ar
   3    1   14 1
   4    2    6 ar
   5    2   27 1
   6    3    4 ar
   7    4    5 ar
   8    4    7 1
   9    5    6 ar
  10    5   10 1
  11    6   28 1
  12    7    8 1
  13    7   29 1
  14    7   30 1
  15    8    9 1
  16    8   31 1
  17    8   32 1
  18    9   10 am
  19    9   12 1
  20   10   11 2
  21   12   13 ar
  22   12   25 ar
  23   13   22 ar
  24   13   33 1
  25   14   15 1
  26   15   16 1
  27   15   34 1
  28   15   35 1
  29   16   17 ar
  30   16   21 ar
  31   17   18 ar
  32   17   36 1
  33   18   19 ar
  34   18   37 1
  35   19   20 ar
  36   19   38 1
  37   20   21 ar
  38   20   39 1
  39   21   40 1
  40   22   23 ar
  41   22   41 1
  42   23   24 ar
  43   23   26 1
  44   24   25 ar
  45   24   42 1
  46   25   43 1

#	End of record

