#	Name: ASD01812471
#	Creating user name:	WinNT
#	Creation time:	15. 06. 2019 19:28

#	Modifying user name:	WinNT
#	Modification time:	15. 06. 2019 19:28

#	Program:	/corina/corina34_cracker 3.40 0067  02.08.2006

@<TRIPOS>MOLECULE
ASD01812471
  61   66    0    0    0
SMALL
NO_CHARGES


@<TRIPOS>ATOM
   1 C1            -0.0178     1.4608     0.0101 C.3     
   2 N2             0.0021    -0.0041     0.0020 N.pl3   
   3 C3             0.0077    -0.7875    -1.0939 C.2     
   4 C4             0.0273    -2.0862    -0.6731 C.2     
   5 C5             0.0335    -2.0755     0.7360 C.2     
   6 N6             0.0245    -0.8305     1.1319 N.2     
   7 C7             0.0393    -3.2890    -1.5409 C.ar    
   8 C8             0.0533    -4.5572    -0.9640 C.ar    
   9 C9             0.0639    -5.6700    -1.7865 C.ar    
  10 C10            0.0601    -5.4781    -3.1611 C.ar    
  11 C11            0.0708    -6.6613    -4.0943 C.3     
  12 C12           -1.3464    -7.0701    -4.4034 C.ar    
  13 C13           -1.9324    -8.0509    -3.6739 C.ar    
  14 C14           -3.2497    -8.4624    -3.9279 C.ar    
  15 C15           -3.8925    -9.5246    -3.1420 C.2     
  16 O16           -3.3018   -10.0879    -2.2383 O.2     
  17 N17           -5.1661    -9.8527    -3.4607 N.am    
  18 C18           -5.8089    -9.2148    -4.4706 C.2     
  19 N19           -5.2595    -8.2723    -5.1794 N.2     
  20 C20           -4.0005    -7.8611    -4.9548 C.ar    
  21 C21           -3.3757    -6.8055    -5.7430 C.ar    
  22 C22           -4.0415    -6.1487    -6.7841 C.ar    
  23 C23           -3.3802    -5.1709    -7.4712 C.ar    
  24 N24           -2.1343    -4.8348    -7.1755 N.ar    
  25 C25           -1.4522    -5.4102    -6.2119 C.ar    
  26 C26           -2.0440    -6.4232    -5.4422 C.ar    
  27 C27           -5.8555   -10.9049    -2.7098 C.3     
  28 H28           -5.1889   -11.3008    -1.9437 H       
  29 C29           -7.1056   -10.3228    -2.0469 C.3     
  30 C30           -7.8256   -11.4217    -1.2626 C.3     
  31 C31           -8.2313   -12.5469    -2.2167 C.3     
  32 C32           -6.9812   -13.1289    -2.8796 C.3     
  33 C33           -6.2612   -12.0301    -3.6639 C.3     
  34 H34           -6.9278   -11.6342    -4.4300 H       
  35 O35           -5.0937   -12.5737    -4.2830 O.3     
  36 C36            0.0459    -4.1915    -3.6660 C.ar    
  37 N37            0.0309    -3.1486    -2.8603 N.ar    
  38 H38            1.0048     1.8381     0.0023 H       
  39 H39           -0.5450     1.8219    -0.8730 H       
  40 H40           -0.5280     1.8123     0.9069 H       
  41 H41           -0.0015    -0.4495    -2.1196 H       
  42 H42            0.0482    -2.9447     1.3768 H       
  43 H43            0.0563    -4.6702     0.1101 H       
  44 H44            0.0753    -6.6656    -1.3682 H       
  45 H45            0.5806    -6.3903    -5.0188 H       
  46 H46            0.5937    -7.4925    -3.6212 H       
  47 H47           -1.3736    -8.5256    -2.8809 H       
  48 H48           -6.8248    -9.5032    -4.6971 H       
  49 H49           -5.0578    -6.4100    -7.0394 H       
  50 H50           -3.8864    -4.6592    -8.2763 H       
  51 H51           -0.4375    -5.1009    -6.0093 H       
  52 H52           -6.8166    -9.5212    -1.3672 H       
  53 H53           -7.7722    -9.9269    -2.8130 H       
  54 H54           -7.1590   -11.8176    -0.4965 H       
  55 H55           -8.7162   -11.0070    -0.7904 H       
  56 H56           -8.7442   -13.3297    -1.6580 H       
  57 H57           -8.8979   -12.1509    -2.9829 H       
  58 H58           -6.3146   -13.5249    -2.1135 H       
  59 H59           -7.2702   -13.9305    -3.5593 H       
  60 H60           -5.2760   -13.2936    -4.9024 H       
  61 H61            0.0432    -4.0388    -4.7351 H       
@<TRIPOS>BOND
   1    1    2 1
   2    1   38 1
   3    1   39 1
   4    1   40 1
   5    2    6 1
   6    2    3 1
   7    3    4 2
   8    3   41 1
   9    4    5 1
  10    4    7 1
  11    5    6 2
  12    5   42 1
  13    7   37 ar
  14    7    8 ar
  15    8    9 ar
  16    8   43 1
  17    9   10 ar
  18    9   44 1
  19   10   11 1
  20   10   36 ar
  21   11   12 1
  22   11   45 1
  23   11   46 1
  24   12   26 ar
  25   12   13 ar
  26   13   14 ar
  27   13   47 1
  28   14   20 ar
  29   14   15 1
  30   15   16 2
  31   15   17 am
  32   17   18 1
  33   17   27 1
  34   18   19 2
  35   18   48 1
  36   19   20 1
  37   20   21 ar
  38   21   26 ar
  39   21   22 ar
  40   22   23 ar
  41   22   49 1
  42   23   24 ar
  43   23   50 1
  44   24   25 ar
  45   25   26 ar
  46   25   51 1
  47   27   28 1
  48   27   33 1
  49   27   29 1
  50   29   30 1
  51   29   52 1
  52   29   53 1
  53   30   31 1
  54   30   54 1
  55   30   55 1
  56   31   32 1
  57   31   56 1
  58   31   57 1
  59   32   33 1
  60   32   58 1
  61   32   59 1
  62   33   34 1
  63   33   35 1
  64   35   60 1
  65   36   37 ar
  66   36   61 1

#	End of record

