#	Name: ASD03090324
#	Creating user name:	WinNT
#	Creation time:	15. 06. 2019 20:28

#	Modifying user name:	WinNT
#	Modification time:	15. 06. 2019 20:28

#	Program:	/corina/corina34_cracker 3.40 0067  02.08.2006

@<TRIPOS>MOLECULE
ASD03090324
  46   49    0    0    0
SMALL
NO_CHARGES


@<TRIPOS>ATOM
   1 N1            -0.0221     1.1228     1.2630 N.ar    
   2 C2             0.0429    -0.1949     1.2562 C.ar    
   3 C3             1.2338    -0.8441     1.0038 C.ar    
   4 C4             2.3811    -0.0836     0.7526 C.ar    
   5 C5             2.2658     1.3104     0.7693 C.ar    
   6 C6             1.0350     1.8768     1.0312 C.ar    
   7 C7             3.6808    -0.7360     0.4773 C.2     
   8 N8             5.7106    -3.4477    -0.4614 N.pl3   
   9 C9             4.8770    -4.5008    -0.8471 C.ar    
  10 C10            3.6714    -4.2361    -1.4840 C.ar    
  11 C11            2.8477    -5.2801    -1.8649 C.ar    
  12 C12            3.2242    -6.5884    -1.6112 C.ar    
  13 C13            4.4255    -6.8547    -0.9759 C.ar    
  14 C14            5.2554    -5.8140    -0.5992 C.ar    
  15 N15            3.8555    -1.9841     0.0920 N.2     
  16 C16            5.1572    -2.2297    -0.0618 C.2     
  17 N17            5.8349    -1.1412     0.2232 N.2     
  18 N18            4.8977    -0.1551     0.5712 N.pl3   
  19 C19            5.1827     1.2266     0.9662 C.3     
  20 C20            5.2296     2.1004    -0.2607 C.2     
  21 N21            5.4785     3.4194    -0.1395 N.am    
  22 F22            4.7901    -8.1320    -0.7293 F       
  23 F23            1.6749    -5.0232    -2.4844 F       
  24 C24           -1.2004    -1.0019     1.5283 C.3     
  25 O25            5.0432     1.6166    -1.3571 O.2     
  26 C26            5.5241     4.2688    -1.3322 C.3     
  27 C27           -2.0057    -1.4873     0.3214 C.3     
  28 C28           -1.1809    -2.4818     1.1408 C.3     
  29 H29            1.2799    -1.9231     1.0005 H       
  30 H30            3.1272     1.9339     0.5808 H       
  31 H31            0.9358     2.9522     1.0463 H       
  32 H32            6.6736    -3.5629    -0.4713 H       
  33 H33            3.3771    -3.2159    -1.6814 H       
  34 H34            2.5797    -7.4023    -1.9090 H       
  35 H35            6.1922    -6.0221    -0.1038 H       
  36 H36            4.3994     1.5820     1.6357 H       
  37 H37            6.1442     1.2671     1.4781 H       
  38 H38            5.6276     3.8062     0.7374 H       
  39 H39           -1.7550    -0.7232     2.4243 H       
  40 H40            5.7362     5.2968    -1.0383 H       
  41 H41            6.3074     3.9134    -2.0017 H       
  42 H42            4.5626     4.2283    -1.8441 H       
  43 H43           -3.0902    -1.5283     0.4235 H       
  44 H44           -1.6363    -1.2230    -0.6695 H       
  45 H45           -0.2688    -2.8718     0.6890 H       
  46 H46           -1.7227    -3.1772     1.7819 H       
@<TRIPOS>BOND
   1    1    2 ar
   2    1    6 ar
   3    2    3 ar
   4    2   24 1
   5    3    4 ar
   6    3   29 1
   7    4    5 ar
   8    4    7 1
   9    5    6 ar
  10    5   30 1
  11    6   31 1
  12    7   15 2
  13    7   18 1
  14    8    9 1
  15    8   16 1
  16    8   32 1
  17    9   10 ar
  18    9   14 ar
  19   10   11 ar
  20   10   33 1
  21   11   12 ar
  22   11   23 1
  23   12   13 ar
  24   12   34 1
  25   13   14 ar
  26   13   22 1
  27   14   35 1
  28   15   16 1
  29   16   17 2
  30   17   18 1
  31   18   19 1
  32   19   20 1
  33   19   36 1
  34   19   37 1
  35   20   21 am
  36   20   25 2
  37   21   26 1
  38   21   38 1
  39   24   27 1
  40   24   28 1
  41   24   39 1
  42   26   40 1
  43   26   41 1
  44   26   42 1
  45   27   28 1
  46   27   43 1
  47   27   44 1
  48   28   45 1
  49   28   46 1

#	End of record

