#	Name: ASD02398063
#	Creating user name:	WinNT
#	Creation time:	15. 06. 2019 20:20

#	Modifying user name:	WinNT
#	Modification time:	15. 06. 2019 20:20

#	Program:	/corina/corina34_cracker 3.40 0067  02.08.2006

@<TRIPOS>MOLECULE
ASD02398063
  63   66    0    0    0
SMALL
NO_CHARGES


@<TRIPOS>ATOM
   1 C1            -0.0170     1.4043     0.0098 C.ar    
   2 C2             0.0021    -0.0041     0.0020 C.ar    
   3 N3            -1.3083    -0.4303     0.0114 N.pl3   
   4 C4            -2.1486     0.6470     0.0259 C.2     
   5 C5            -1.4261     1.7835     0.0311 C.2     
   6 C6             1.1848     2.1151     0.0021 C.ar    
   7 C7             2.3732     1.4410    -0.0120 C.ar    
   8 C8             2.3967     0.0534    -0.0196 C.ar    
   9 C9             1.2234    -0.6688    -0.0121 C.ar    
  10 C10           -3.6598     0.6151     0.0391 C.3     
  11 C11           -4.1798     1.9980    -0.3687 C.3     
  12 C12           -3.4817     3.0740     0.4677 C.3     
  13 C13           -2.0113     3.1721     0.0492 C.3     
  14 N14           -4.1403     4.3648     0.2521 N.am    
  15 C15           -4.1958     4.9431    -1.0928 C.3     
  16 C16           -3.5777     6.2148     2.2105 C.ar    
  17 C17           -3.4270     7.5064     1.7413 C.ar    
  18 C18           -2.7567     5.7441     3.2183 C.ar    
  19 C19           -1.7846     6.5646     3.7582 C.ar    
  20 C20           -1.6327     7.8585     3.2891 C.ar    
  21 C21           -2.4553     8.3287     2.2794 C.ar    
  22 F22           -0.6830     8.6616     3.8164 F       
  23 C23           -1.7370    -1.8311     0.0062 C.3     
  24 C24           -1.8734    -2.3281     1.4468 C.3     
  25 C25           -2.3211    -3.7912     1.4413 C.3     
  26 C26           -3.6075    -3.9278     0.6245 C.3     
  27 O27           -1.2980    -4.6002     0.8576 O.3     
  28 C28           -2.5777    -4.2513     2.8777 C.3     
  29 S29           -4.8219     5.1700     1.5285 S.o2    
  30 O30           -5.8107     6.0298     0.9787 O.2     
  31 O31           -5.1073     4.1887     2.5158 O.2     
  32 C32           -5.3802     4.3783    -1.8339 C.2     
  33 O33           -6.1037     3.5751    -1.2942 O.2     
  34 O34           -5.6314     4.7676    -3.0937 O.3     
  35 H35            1.1751     3.1950     0.0070 H       
  36 H36            3.3018     1.9925    -0.0177 H       
  37 H37            3.3439    -0.4654    -0.0308 H       
  38 H38            1.2521    -1.7484    -0.0179 H       
  39 H39           -4.0163    -0.1334    -0.6685 H       
  40 H40           -4.0121     0.3724     1.0416 H       
  41 H41           -3.9717     2.1673    -1.4251 H       
  42 H42           -5.2553     2.0463    -0.1982 H       
  43 H43           -3.5382     2.8080     1.5233 H       
  44 H44           -1.4680     3.7922     0.7622 H       
  45 H45           -1.9423     3.6081    -0.9474 H       
  46 H46           -4.2962     6.0260    -1.0187 H       
  47 H47           -3.2801     4.6991    -1.6313 H       
  48 H48           -4.0688     7.8730     0.9538 H       
  49 H49           -2.8754     4.7349     3.5840 H       
  50 H50           -1.1438     6.1969     4.5459 H       
  51 H51           -2.3375     9.3376     1.9125 H       
  52 H52           -2.6989    -1.9149    -0.4996 H       
  53 H53           -0.9969    -2.4356    -0.5182 H       
  54 H54           -0.9115    -2.2444     1.9526 H       
  55 H55           -2.6135    -1.7236     1.9711 H       
  56 H56           -3.4247    -3.5999    -0.3989 H       
  57 H57           -3.9265    -4.9701     0.6206 H       
  58 H58           -4.3879    -3.3107     1.0697 H       
  59 H59           -0.4522    -4.5624     1.3247 H       
  60 H60           -3.3581    -3.6342     3.3230 H       
  61 H61           -2.8967    -5.2936     2.8738 H       
  62 H62           -1.6612    -4.1540     3.4597 H       
  63 H63           -6.4024     4.3778    -3.5282 H       
@<TRIPOS>BOND
   1    1    2 ar
   2    1    6 ar
   3    1    5 1
   4    2    3 1
   5    2    9 ar
   6    3    4 1
   7    3   23 1
   8    4    5 2
   9    4   10 1
  10    5   13 1
  11    6    7 ar
  12    6   35 1
  13    7    8 ar
  14    7   36 1
  15    8    9 ar
  16    8   37 1
  17    9   38 1
  18   10   11 1
  19   10   39 1
  20   10   40 1
  21   11   12 1
  22   11   41 1
  23   11   42 1
  24   12   13 1
  25   12   14 1
  26   12   43 1
  27   13   44 1
  28   13   45 1
  29   14   15 1
  30   14   29 am
  31   15   32 1
  32   15   46 1
  33   15   47 1
  34   16   17 ar
  35   16   18 ar
  36   16   29 1
  37   17   21 ar
  38   17   48 1
  39   18   19 ar
  40   18   49 1
  41   19   20 ar
  42   19   50 1
  43   20   21 ar
  44   20   22 1
  45   21   51 1
  46   23   24 1
  47   23   52 1
  48   23   53 1
  49   24   25 1
  50   24   54 1
  51   24   55 1
  52   25   26 1
  53   25   27 1
  54   25   28 1
  55   26   56 1
  56   26   57 1
  57   26   58 1
  58   27   59 1
  59   28   60 1
  60   28   61 1
  61   28   62 1
  62   29   30 2
  63   29   31 2
  64   32   33 2
  65   32   34 1
  66   34   63 1

#	End of record

