#	Name: ASD01917752
#	Creating user name:	WinNT
#	Creation time:	15. 06. 2019 20:09

#	Modifying user name:	WinNT
#	Modification time:	15. 06. 2019 20:09

#	Program:	/corina/corina34_cracker 3.40 0067  02.08.2006

@<TRIPOS>MOLECULE
ASD01917752
  41   43    0    0    0
SMALL
NO_CHARGES


@<TRIPOS>ATOM
   1 C1            -0.0165     1.3682     0.0096 C.2     
   2 C2             0.0021    -0.0041     0.0020 C.2     
   3 C3            -1.3075    -0.7746     0.0118 C.3     
   4 C4            -2.3563     0.0470     0.7582 C.3     
   5 N5            -2.3977     1.4368     0.3216 N.am    
   6 C6            -1.2721     2.1286     0.0202 C.2     
   7 O7            -1.3005     3.3207    -0.2220 O.2     
   8 S8             1.6342     1.9488    -0.0031 S.3     
   9 C9             2.2070     0.3364    -0.0181 C.2     
  10 N10            1.2149    -0.4958    -0.0130 N.2     
  11 C11            3.6610    -0.0593    -0.0356 C.3     
  12 C12            4.1200    -0.1798    -1.4291 C.1     
  13 C13            4.4860    -0.2759    -2.5404 C.1     
  14 C14            4.9325    -0.3932    -3.8960 C.ar    
  15 C15            6.2528    -0.7517    -4.1702 C.ar    
  16 C16            6.6765    -0.8634    -5.4785 C.ar    
  17 C17            5.7955    -0.6209    -6.5172 C.ar    
  18 C18            4.4853    -0.2646    -6.2520 C.ar    
  19 C19            4.0475    -0.1550    -4.9482 C.ar    
  20 C20           -3.6956     2.1053     0.2002 C.3     
  21 C21           -4.0524     2.7720     1.5303 C.3     
  22 O22           -3.1148     3.8142     1.8073 O.3     
  23 C23           -3.3591     4.5048     3.0343 C.3     
  24 H24           -1.6385    -0.9456    -1.0126 H       
  25 H25           -1.1653    -1.7304     0.5162 H       
  26 H26           -3.3361    -0.4021     0.5959 H       
  27 H27           -2.1313     0.0197     1.8244 H       
  28 H28            4.2507     0.7010     0.4766 H       
  29 H29            3.7832    -1.0165     0.4712 H       
  30 H30            6.9416    -0.9410    -3.3602 H       
  31 H31            7.6983    -1.1405    -5.6922 H       
  32 H32            6.1322    -0.7097    -7.5396 H       
  33 H33            3.8027    -0.0759    -7.0673 H       
  34 H34            3.0244     0.1232    -4.7424 H       
  35 H35           -3.6428     2.8618    -0.5828 H       
  36 H36           -4.4599     1.3712    -0.0548 H       
  37 H37           -5.0558     3.1930     1.4680 H       
  38 H38           -4.0182     2.0308     2.3288 H       
  39 H39           -4.3482     4.9618     3.0032 H       
  40 H40           -3.3106     3.7996     3.8640 H       
  41 H41           -2.6050     5.2797     3.1714 H       
@<TRIPOS>BOND
   1    1    2 2
   2    1    8 1
   3    1    6 1
   4    2    3 1
   5    2   10 1
   6    3    4 1
   7    3   24 1
   8    3   25 1
   9    4    5 1
  10    4   26 1
  11    4   27 1
  12    5    6 am
  13    5   20 1
  14    6    7 2
  15    8    9 1
  16    9   10 2
  17    9   11 1
  18   11   12 1
  19   11   28 1
  20   11   29 1
  21   12   13 3
  22   13   14 1
  23   14   15 ar
  24   14   19 ar
  25   15   16 ar
  26   15   30 1
  27   16   17 ar
  28   16   31 1
  29   17   18 ar
  30   17   32 1
  31   18   19 ar
  32   18   33 1
  33   19   34 1
  34   20   21 1
  35   20   35 1
  36   20   36 1
  37   21   22 1
  38   21   37 1
  39   21   38 1
  40   22   23 1
  41   23   39 1
  42   23   40 1
  43   23   41 1

#	End of record

