#	Name: ASD00431321
#	Creating user name:	WinNT
#	Creation time:	15. 06. 2019 18:35

#	Modifying user name:	WinNT
#	Modification time:	15. 06. 2019 18:35

#	Program:	/corina/corina34_cracker 3.40 0067  02.08.2006

@<TRIPOS>MOLECULE
ASD00431321
  56   61    0    0    0
SMALL
NO_CHARGES


@<TRIPOS>ATOM
   1 C1             0.4322     0.4431    -0.3897 C.2     
   2 N2             0.0197    -0.8322    -0.5035 N.am    
   3 C3             1.0445    -1.6462    -0.8149 C.2     
   4 C4             2.2751    -0.8345    -0.9218 C.ar    
   5 C5             3.6004    -1.1191    -1.2095 C.ar    
   6 C6             4.5345    -0.0952    -1.2295 C.ar    
   7 C7             4.1530     1.2067    -0.9646 C.ar    
   8 C8             2.8309     1.5064    -0.6753 C.ar    
   9 C9             1.8861     0.4931    -0.6517 C.ar    
  10 O10           -0.2729     1.3950    -0.1218 O.2     
  11 O11            0.9710    -2.8472    -0.9798 O.2     
  12 C12           -1.3633    -1.2763    -0.3130 C.3     
  13 C13           -1.8714    -1.9287    -1.6003 C.3     
  14 O14           -0.5309    -3.2493     1.0635 O.3     
  15 N15           -0.8359    -3.8987     2.0368 N.2     
  16 C16           -1.9534    -3.4632     2.5709 C.2     
  17 C17           -2.3735    -2.3651     1.7653 C.2     
  18 C18           -1.4192    -2.2763     0.8130 C.2     
  19 S19           -4.1385    -3.3985     4.4600 S.3     
  20 C20           -4.0663    -4.5932     5.6805 C.2     
  21 N21           -3.0096    -5.3304     5.5270 N.2     
  22 C22           -2.2216    -5.0448     4.5138 C.2     
  23 C23           -2.6367    -4.0022     3.7642 C.2     
  24 O24           -4.9809    -4.7477     6.6672 O.3     
  25 C25           -4.7100    -5.6429     7.6543 C.ar    
  26 C26           -5.6886    -5.9687     8.5840 C.ar    
  27 C27           -5.4129    -6.8789     9.5865 C.ar    
  28 C28           -4.1587    -7.4666     9.6638 C.ar    
  29 C29           -3.1814    -7.1405     8.7354 C.ar    
  30 C30           -3.4583    -6.2349     7.7293 C.ar    
  31 O31           -3.8873    -8.3622    10.6503 O.3     
  32 C32           -2.5753    -8.9283    10.6696 C.3     
  33 C33           -2.4587    -9.9055    11.8411 C.3     
  34 C34           -1.1618   -10.7075    11.9657 C.3     
  35 C35           -1.4540    -9.5686    12.9447 C.3     
  36 Cl36          -7.2578    -5.2325     8.4871 Cl      
  37 H37            3.9043    -2.1345    -1.4169 H       
  38 H38            5.5677    -0.3162    -1.4532 H       
  39 H39            4.8901     1.9958    -0.9828 H       
  40 H40            2.5385     2.5253    -0.4687 H       
  41 H41           -1.9899    -0.4185    -0.0686 H       
  42 H42           -2.9004    -2.2591    -1.4585 H       
  43 H43           -1.8309    -1.2054    -2.4147 H       
  44 H44           -1.2448    -2.7865    -1.8447 H       
  45 H45           -3.2511    -1.7476     1.8875 H       
  46 H46           -1.3187    -5.5973     4.3000 H       
  47 H47           -6.1736    -7.1323    10.3101 H       
  48 H48           -2.2049    -7.5978     8.7963 H       
  49 H49           -2.6985    -5.9849     7.0037 H       
  50 H50           -2.3946    -9.4587     9.7347 H       
  51 H51           -1.8383    -8.1335    10.7847 H       
  52 H52           -3.3852   -10.3977    12.1367 H       
  53 H53           -1.2350   -11.7273    12.3435 H       
  54 H54           -0.3915   -10.5390    11.2130 H       
  55 H55           -0.8760    -8.6509    12.8362 H       
  56 H56           -1.7194    -9.8392    13.9667 H       
@<TRIPOS>BOND
   1    1    2 am
   2    1    9 1
   3    1   10 2
   4    2    3 am
   5    2   12 1
   6    3    4 1
   7    3   11 2
   8    4    5 ar
   9    4    9 ar
  10    5    6 ar
  11    5   37 1
  12    6    7 ar
  13    6   38 1
  14    7    8 ar
  15    7   39 1
  16    8    9 ar
  17    8   40 1
  18   12   13 1
  19   12   18 1
  20   12   41 1
  21   13   42 1
  22   13   43 1
  23   13   44 1
  24   14   15 1
  25   14   18 1
  26   15   16 2
  27   16   17 1
  28   16   23 1
  29   17   18 2
  30   17   45 1
  31   19   20 1
  32   19   23 1
  33   20   21 2
  34   20   24 1
  35   21   22 1
  36   22   23 2
  37   22   46 1
  38   24   25 1
  39   25   26 ar
  40   25   30 ar
  41   26   27 ar
  42   26   36 1
  43   27   28 ar
  44   27   47 1
  45   28   29 ar
  46   28   31 1
  47   29   30 ar
  48   29   48 1
  49   30   49 1
  50   31   32 1
  51   32   33 1
  52   32   50 1
  53   32   51 1
  54   33   34 1
  55   33   35 1
  56   33   52 1
  57   34   35 1
  58   34   53 1
  59   34   54 1
  60   35   55 1
  61   35   56 1

#	End of record

