#	Name: ASD02198202
#	Creating user name:	WinNT
#	Creation time:	15. 06. 2019 20:19

#	Modifying user name:	WinNT
#	Modification time:	15. 06. 2019 20:19

#	Program:	/corina/corina34_cracker 3.40 0067  02.08.2006

@<TRIPOS>MOLECULE
ASD02198202
  45   47    0    0    0
SMALL
NO_CHARGES


@<TRIPOS>ATOM
   1 C1            -0.0166     1.3753     0.0096 C.2     
   2 C2             0.0021    -0.0041     0.0020 C.2     
   3 C3            -1.1878    -0.8008     0.0087 C.1     
   4 S4             1.5675     2.0054    -0.0021 S.3     
   5 C5             2.2772     0.3990    -0.0175 C.2     
   6 C6             1.2824    -0.5520    -0.0132 C.2     
   7 C7             3.6580     0.1249    -0.0322 C.2     
   8 C8             4.6307     1.2349    -0.0350 C.2     
   9 O9             4.0506    -1.0302    -0.0426 O.2     
  10 N10            1.5294    -1.9154    -0.0228 N.pl3   
  11 N11           -1.1593     2.1393     0.0194 N.pl3   
  12 N12           -2.1317    -1.4328     0.0139 N.1     
  13 C13           -1.0630     3.6011     0.0268 C.3     
  14 C14           -2.3387     4.2164    -0.5745 C.3     
  15 C15           -2.9729     5.0847     0.5317 C.3     
  16 C16           -1.7894     5.4291     1.4696 C.3     
  17 C17           -0.9665     4.1169     1.4775 C.3     
  18 C18            5.9943     1.1302    -0.0485 C.2     
  19 O19            4.3523     2.5515    -0.0306 O.3     
  20 N20            5.3581     3.2219    -0.0345 N.2     
  21 C21            6.4377     2.4797    -0.0449 C.2     
  22 C22            7.8430     2.9541    -0.0519 C.2     
  23 N23            8.1082     4.2755    -0.0482 N.am    
  24 O24            8.7551     2.1515    -0.0610 O.2     
  25 C25            9.4963     4.7441    -0.0552 C.3     
  26 C26            9.5182     6.2739    -0.0491 C.3     
  27 H27            2.4424    -2.2428    -0.0333 H       
  28 H28            0.7893    -2.5424    -0.0191 H       
  29 H29           -2.0294     1.7105     0.0213 H       
  30 H30           -0.1902     3.9204    -0.5426 H       
  31 H31           -2.0849     4.8351    -1.4353 H       
  32 H32           -3.0295     3.4274    -0.8719 H       
  33 H33           -3.3993     5.9931     0.1062 H       
  34 H34           -3.7345     4.5205     1.0700 H       
  35 H35           -1.2010     6.2516     1.0630 H       
  36 H36           -2.1470     5.6669     2.4715 H       
  37 H37           -1.4040     3.3964     2.1685 H       
  38 H38            0.0714     4.3191     1.7422 H       
  39 H39            6.5936     0.2318    -0.0591 H       
  40 H40            7.3801     4.9163    -0.0410 H       
  41 H41           10.0105     4.3698     0.8300 H       
  42 H42            9.9992     4.3770    -0.9499 H       
  43 H43           10.5509     6.6225    -0.0543 H       
  44 H44            9.0039     6.6481    -0.9343 H       
  45 H45            9.0153     6.6409     0.8456 H       
@<TRIPOS>BOND
   1    1    2 2
   2    1    4 1
   3    1   11 1
   4    2    3 1
   5    2    6 1
   6    3   12 3
   7    4    5 1
   8    5    6 2
   9    5    7 1
  10    6   10 1
  11    7    8 1
  12    7    9 2
  13    8   18 2
  14    8   19 1
  15   10   27 1
  16   10   28 1
  17   11   13 1
  18   11   29 1
  19   13   14 1
  20   13   17 1
  21   13   30 1
  22   14   15 1
  23   14   31 1
  24   14   32 1
  25   15   16 1
  26   15   33 1
  27   15   34 1
  28   16   17 1
  29   16   35 1
  30   16   36 1
  31   17   37 1
  32   17   38 1
  33   18   21 1
  34   18   39 1
  35   19   20 1
  36   20   21 2
  37   21   22 1
  38   22   23 am
  39   22   24 2
  40   23   25 1
  41   23   40 1
  42   25   26 1
  43   25   41 1
  44   25   42 1
  45   26   43 1
  46   26   44 1
  47   26   45 1

#	End of record

