#	Name: ASD02038212
#	Creating user name:	WinNT
#	Creation time:	15. 06. 2019 20:16

#	Modifying user name:	WinNT
#	Modification time:	15. 06. 2019 20:16

#	Program:	/corina/corina34_cracker 3.40 0067  02.08.2006

@<TRIPOS>MOLECULE
ASD02038212
  62   66    0    0    0
SMALL
NO_CHARGES


@<TRIPOS>ATOM
   1 C1            -0.0187     1.5263     0.0104 C.3     
   2 C2             0.0021    -0.0041     0.0020 C.3     
   3 N3             0.7238    -0.4751    -1.1883 N.3     
   4 C4             0.7003    -1.9415    -1.2723 C.3     
   5 C5             1.6601    -2.4049    -2.3699 C.3     
   6 O6             1.2550    -1.8495    -3.6227 O.3     
   7 C7             1.6357    -3.9322    -2.4573 C.3     
   8 O8             2.6158    -4.3711    -3.4001 O.3     
   9 C9             2.7249    -5.7119    -3.5982 C.ar    
  10 C10            3.6558    -6.2100    -4.4996 C.ar    
  11 C11            1.9102    -6.5884    -2.8961 C.ar    
  12 C12            2.0185    -7.9490    -3.0936 C.ar    
  13 C13            2.9480    -8.4539    -4.0008 C.ar    
  14 C14            3.7618    -7.5685    -4.6955 C.ar    
  15 C15            2.1034     0.0310    -1.1988 C.3     
  16 C16            2.0826     1.5614    -1.1904 C.3     
  17 N17            1.3610     2.0324    -0.0000 N.3     
  18 C18            1.3832     3.4255     0.0797 C.ar    
  19 C19            0.7534     4.0704     1.1380 C.ar    
  20 C20            0.7738     5.4464     1.2184 C.ar    
  21 C21            1.4271     6.1913     0.2378 C.ar    
  22 C22            2.0585     5.5427    -0.8224 C.ar    
  23 C23            2.0402     4.1662    -0.8962 C.ar    
  24 C24            1.4500     7.6722     0.3220 C.ar    
  25 N25            3.2417    -9.7695    -4.3691 N.am    
  26 C26            4.2182    -9.8333    -5.2898 C.2     
  27 C27            4.6455    -8.4116    -5.5858 C.3     
  28 O28            4.6739   -10.8410    -5.7879 O.2     
  29 C29            2.1026     8.4185    -0.6575 C.ar    
  30 C30            2.1208     9.7959    -0.5740 C.ar    
  31 C31            1.4931    10.4359     0.4795 C.ar    
  32 C32            0.8442     9.7002     1.4548 C.ar    
  33 C33            0.8140     8.3226     1.3779 C.ar    
  34 H34           -0.5453     1.8877    -0.8728 H       
  35 H35           -0.5283     1.8781     0.9074 H       
  36 H36            0.5048    -0.3659     0.8989 H       
  37 H37           -1.0203    -0.3815    -0.0195 H       
  38 H38            1.0093    -2.3651    -0.3167 H       
  39 H39           -0.3100    -2.2758    -1.5082 H       
  40 H40            2.6704    -2.0706    -2.1340 H       
  41 H41            0.3635    -2.1054    -3.8965 H       
  42 H42            1.8583    -4.3558    -1.4780 H       
  43 H43            0.6481    -4.2619    -2.7798 H       
  44 H44            4.2955    -5.5330    -5.0464 H       
  45 H45            1.1880    -6.2034    -2.1914 H       
  46 H46            1.3812    -8.6252    -2.5432 H       
  47 H47            2.6300    -0.3304    -0.3155 H       
  48 H48            2.6130    -0.3208    -2.0958 H       
  49 H49            3.1050     1.9388    -1.1689 H       
  50 H50            1.5799     1.9232    -2.0873 H       
  51 H51            0.2473     3.4929     1.8976 H       
  52 H52            0.2837     5.9471     2.0404 H       
  53 H53            2.5652     6.1180    -1.5832 H       
  54 H54            2.5295     3.6633    -1.7172 H       
  55 H55            2.7927   -10.5471    -4.0020 H       
  56 H56            4.4709    -8.1709    -6.6345 H       
  57 H57            5.6951    -8.2671    -5.3296 H       
  58 H58            2.5936     7.9198    -1.4801 H       
  59 H59            2.6262    10.3752    -1.3325 H       
  60 H60            1.5101    11.5140     0.5411 H       
  61 H61            0.3561    10.2051     2.2753 H       
  62 H62            0.3068     7.7492     2.1396 H       
@<TRIPOS>BOND
   1    1    2 1
   2    1   17 1
   3    1   34 1
   4    1   35 1
   5    2    3 1
   6    2   36 1
   7    2   37 1
   8    3    4 1
   9    3   15 1
  10    4    5 1
  11    4   38 1
  12    4   39 1
  13    5    6 1
  14    5    7 1
  15    5   40 1
  16    6   41 1
  17    7    8 1
  18    7   42 1
  19    7   43 1
  20    8    9 1
  21    9   10 ar
  22    9   11 ar
  23   10   14 ar
  24   10   44 1
  25   11   12 ar
  26   11   45 1
  27   12   13 ar
  28   12   46 1
  29   13   14 ar
  30   13   25 1
  31   14   27 1
  32   15   16 1
  33   15   47 1
  34   15   48 1
  35   16   17 1
  36   16   49 1
  37   16   50 1
  38   17   18 1
  39   18   19 ar
  40   18   23 ar
  41   19   20 ar
  42   19   51 1
  43   20   21 ar
  44   20   52 1
  45   21   22 ar
  46   21   24 1
  47   22   23 ar
  48   22   53 1
  49   23   54 1
  50   24   29 ar
  51   24   33 ar
  52   25   26 am
  53   25   55 1
  54   26   27 1
  55   26   28 2
  56   27   56 1
  57   27   57 1
  58   29   30 ar
  59   29   58 1
  60   30   31 ar
  61   30   59 1
  62   31   32 ar
  63   31   60 1
  64   32   33 ar
  65   32   61 1
  66   33   62 1

#	End of record

