#	Name: ASD08710088
#	Creating user name:	WinNT
#	Creation time:	15. 06. 2019 21:19

#	Modifying user name:	WinNT
#	Modification time:	15. 06. 2019 21:19

#	Program:	/corina/corina34_cracker 3.40 0067  02.08.2006

@<TRIPOS>MOLECULE
ASD08710088
  47   49    0    0    0
SMALL
NO_CHARGES


@<TRIPOS>ATOM
   1 N1            -0.0208     1.4767    -0.1290 N.am    
   2 C2             0.0147     0.0075    -0.1202 C.3     
   3 C3             0.6852    -0.4742    -1.4128 C.3     
   4 N4             1.9434     0.2636    -1.5923 N.am    
   5 C5             1.9079     1.7328    -1.6012 C.3     
   6 C6             1.2374     2.2146    -0.3086 C.3     
   7 S7             3.3757    -0.5459    -1.7808 S.o2    
   8 O8             4.4006     0.3533    -1.3805 O.2     
   9 O9             3.1928    -1.8270    -1.1939 O.2     
  10 C10            3.5983    -0.8170    -3.5076 C.ar    
  11 C11            4.2644     0.1219    -4.2734 C.ar    
  12 C12            4.4402    -0.0883    -5.6274 C.ar    
  13 C13            3.9477    -1.2426    -6.2186 C.ar    
  14 C14            3.2797    -2.1832    -5.4481 C.ar    
  15 C15            3.1114    -1.9709    -4.0934 C.ar    
  16 O16            4.1190    -1.4515    -7.5505 O.3     
  17 C17            3.5857    -2.6620    -8.0912 C.3     
  18 F18            2.2032    -2.6978    -7.8798 F       
  19 F19            3.8490    -2.7152    -9.4642 F       
  20 F20            4.1827    -3.7579    -7.4591 F       
  21 C21           -1.1872     2.1355     0.0193 C.2     
  22 O22           -2.2337     1.5182     0.0547 O.2     
  23 C23           -2.1541     4.3709    -0.5284 C.ar    
  24 C24           -1.1938     3.6091     0.1389 C.ar    
  25 C25           -0.2373     4.2637     0.9238 C.ar    
  26 C26           -0.2875     5.6445     1.0030 C.ar    
  27 C27           -1.2714     6.3270     0.3109 C.ar    
  28 N28           -2.1603     5.6832    -0.4216 N.ar    
  29 C29           -1.3292     7.8306     0.3946 C.3     
  30 H30            0.5871    -0.3394     0.7401 H       
  31 H31           -1.0017    -0.3827    -0.0679 H       
  32 H32            0.8941    -1.5416    -1.3406 H       
  33 H33            0.0257    -0.2845    -2.2596 H       
  34 H34            2.9243     2.1230    -1.6535 H       
  35 H35            1.3355     2.0797    -2.4615 H       
  36 H36            1.0285     3.2819    -0.3807 H       
  37 H37            1.8969     2.0248     0.5383 H       
  38 H38            4.6473     1.0206    -3.8127 H       
  39 H39            4.9603     0.6456    -6.2252 H       
  40 H40            2.8954    -3.0826    -5.9061 H       
  41 H41            2.5957    -2.7050    -3.4922 H       
  42 H42           -2.8956     3.8800    -1.1412 H       
  43 H43            0.5201     3.7056     1.4543 H       
  44 H44            0.4339     6.1835     1.5993 H       
  45 H45           -0.7215     8.2624    -0.4006 H       
  46 H46           -2.3619     8.1612     0.2831 H       
  47 H47           -0.9461     8.1556     1.3619 H       
@<TRIPOS>BOND
   1    1    2 1
   2    1    6 1
   3    1   21 am
   4    2    3 1
   5    2   30 1
   6    2   31 1
   7    3    4 1
   8    3   32 1
   9    3   33 1
  10    4    5 1
  11    4    7 am
  12    5    6 1
  13    5   34 1
  14    5   35 1
  15    6   36 1
  16    6   37 1
  17    7    8 2
  18    7    9 2
  19    7   10 1
  20   10   11 ar
  21   10   15 ar
  22   11   12 ar
  23   11   38 1
  24   12   13 ar
  25   12   39 1
  26   13   14 ar
  27   13   16 1
  28   14   15 ar
  29   14   40 1
  30   15   41 1
  31   16   17 1
  32   17   18 1
  33   17   19 1
  34   17   20 1
  35   21   22 2
  36   21   24 1
  37   23   24 ar
  38   23   28 ar
  39   23   42 1
  40   24   25 ar
  41   25   26 ar
  42   25   43 1
  43   26   27 ar
  44   26   44 1
  45   27   28 ar
  46   27   29 1
  47   29   45 1
  48   29   46 1
  49   29   47 1

#	End of record

