#	Name: ASD01230614
#	Creating user name:	WinNT
#	Creation time:	15. 06. 2019 19:14

#	Modifying user name:	WinNT
#	Modification time:	15. 06. 2019 19:14

#	Program:	/corina/corina34_cracker 3.40 0067  02.08.2006

@<TRIPOS>MOLECULE
ASD01230614
  45   48    0    0    0
SMALL
NO_CHARGES


@<TRIPOS>ATOM
   1 C1            -0.0185     1.5104     0.0103 C.2     
   2 C2             0.0021    -0.0041     0.0020 C.3     
   3 C3             1.0980    -0.4523     0.9780 C.3     
   4 C4             2.4559     0.0186     0.4649 C.3     
   5 C5             2.4626     1.5036     0.2218 C.ar    
   6 C6             3.6724     2.1770     0.2162 C.ar    
   7 C7             3.7171     3.5377    -0.0068 C.ar    
   8 C8             2.5398     4.2550    -0.2302 C.ar    
   9 C9             1.3169     3.5901    -0.2258 C.ar    
  10 C10            1.2798     2.2135     0.0017 C.ar    
  11 O11           -1.0643     2.1239     0.0187 O.2     
  12 C12           -1.3543    -0.5453     0.4584 C.3     
  13 C13            0.3195    -0.5124    -1.4058 C.3     
  14 S14            3.9894     6.9443     3.0013 S.o2    
  15 N15            3.4395     6.0666     1.7109 N.am    
  16 C16            3.0553     6.6326     0.5927 C.2     
  17 N17            3.0537     7.9756     0.3431 N.pl3   
  18 C18            3.4259     8.9920     1.3307 C.3     
  19 C19            4.5640     8.4859     2.2214 C.3     
  20 C20            2.5922     5.7153    -0.4701 C.2     
  21 C21            2.2102     6.2369    -1.6871 C.2     
  22 C22            2.2697     7.6236    -1.8805 C.2     
  23 C23            2.6807     8.4387    -0.8937 C.2     
  24 O24            2.8327     7.1800     3.7924 O.2     
  25 O25            5.0865     6.1935     3.5030 O.2     
  26 H26            0.9099    -0.0185     1.9601 H       
  27 H27            1.0950    -1.5397     1.0537 H       
  28 H28            3.2206    -0.2259     1.2022 H       
  29 H29            2.6833    -0.4969    -0.4682 H       
  30 H30            4.5890     1.6324     0.3883 H       
  31 H31            4.6674     4.0509    -0.0083 H       
  32 H32            0.4014     4.1367    -0.3972 H       
  33 H33           -2.1326    -0.1924    -0.2182 H       
  34 H34           -1.3321    -1.6350     0.4500 H       
  35 H35           -1.5644    -0.1940     1.4687 H       
  36 H36            1.2949    -0.1377    -1.7160 H       
  37 H37            0.3326    -1.6023    -1.4042 H       
  38 H38           -0.4430    -0.1592    -2.1000 H       
  39 H39            3.7492     9.8950     0.8128 H       
  40 H40            2.5603     9.2245     1.9509 H       
  41 H41            4.7938     9.2266     2.9874 H       
  42 H42            5.4492     8.2887     1.6166 H       
  43 H43            1.8705     5.5869    -2.4798 H       
  44 H44            1.9823     8.0424    -2.8336 H       
  45 H45            2.7189     9.5015    -1.0819 H       
@<TRIPOS>BOND
   1    1    2 1
   2    1   10 1
   3    1   11 2
   4    2    3 1
   5    2   12 1
   6    2   13 1
   7    3    4 1
   8    3   26 1
   9    3   27 1
  10    4    5 1
  11    4   28 1
  12    4   29 1
  13    5    6 ar
  14    5   10 ar
  15    6    7 ar
  16    6   30 1
  17    7    8 ar
  18    7   31 1
  19    8    9 ar
  20    8   20 1
  21    9   10 ar
  22    9   32 1
  23   12   33 1
  24   12   34 1
  25   12   35 1
  26   13   36 1
  27   13   37 1
  28   13   38 1
  29   14   15 am
  30   14   19 1
  31   14   24 2
  32   14   25 2
  33   15   16 2
  34   16   17 1
  35   16   20 1
  36   17   18 1
  37   17   23 1
  38   18   19 1
  39   18   39 1
  40   18   40 1
  41   19   41 1
  42   19   42 1
  43   20   21 2
  44   21   22 1
  45   21   43 1
  46   22   23 2
  47   22   44 1
  48   23   45 1

#	End of record

