#	Name: ASD01880445
#	Creating user name:	WinNT
#	Creation time:	15. 06. 2019 19:40

#	Modifying user name:	WinNT
#	Modification time:	15. 06. 2019 19:40

#	Program:	/corina/corina34_cracker 3.40 0067  02.08.2006

@<TRIPOS>MOLECULE
ASD01880445
  48   52    0    0    0
SMALL
NO_CHARGES


@<TRIPOS>ATOM
   1 C1            -0.0169     1.3931     0.0097 C.ar    
   2 C2             0.0021    -0.0041     0.0020 C.ar    
   3 C3             1.2139    -0.6908    -0.0132 C.ar    
   4 C4             2.4023     0.0192    -0.0208 C.ar    
   5 C5             2.3728     1.4246    -0.0130 C.ar    
   6 C6             1.1520     2.1001     0.0023 C.ar    
   7 N7             3.6287    -0.6377    -0.0355 N.pl3   
   8 C8             4.7929     0.0688    -0.0425 C.2     
   9 N9             4.8013     1.4563    -0.0353 N.am    
  10 C10            3.6498     2.1584    -0.0209 C.2     
  11 N11            3.9497    -2.0027    -0.0451 N.2     
  12 C12            5.2610    -2.1200    -0.0575 C.2     
  13 C13            5.8181    -0.8299    -0.0562 C.2     
  14 C14            6.0808     2.1697    -0.0435 C.3     
  15 O15            3.6657     3.3751    -0.0146 O.2     
  16 C16           -1.2735    -0.7591     0.0106 C.ar    
  17 C17            6.0200    -3.3951    -0.0702 C.ar    
  18 C18            5.3421    -4.6120    -0.0702 C.ar    
  19 C19            6.0540    -5.7960    -0.0825 C.ar    
  20 C20            7.4379    -5.7737    -0.0949 C.ar    
  21 C21            8.1150    -4.5676    -0.0950 C.ar    
  22 C22            7.4135    -3.3792    -0.0881 C.ar    
  23 Cl23           5.2115    -7.3139    -0.0819 Cl      
  24 C24           -2.4895    -0.0764     0.0264 C.ar    
  25 C25           -3.6741    -0.7815     0.0339 C.ar    
  26 C26           -3.6575    -2.1700     0.0258 C.ar    
  27 C27           -2.4483    -2.8528     0.0101 C.ar    
  28 C28           -1.2603    -2.1535    -0.0028 C.ar    
  29 O29           -4.8265    -2.8619     0.0337 O.3     
  30 C30           -4.7363    -4.2881     0.0246 C.3     
  31 H31           -0.9612     1.9171     0.0170 H       
  32 H32            1.2262    -1.7708    -0.0188 H       
  33 H33            1.1312     3.1799     0.0087 H       
  34 H34            6.8716    -0.5924    -0.0642 H       
  35 H35            6.3886     2.3520    -1.0731 H       
  36 H36            5.9696     3.1212     0.4764 H       
  37 H37            6.8362     1.5666     0.4602 H       
  38 H38            4.2623    -4.6299    -0.0601 H       
  39 H39            7.9910    -6.7013    -0.1042 H       
  40 H40            9.1949    -4.5558    -0.1047 H       
  41 H41            7.9436    -2.4382    -0.0885 H       
  42 H42           -2.5030     1.0035     0.0330 H       
  43 H43           -4.6161    -0.2534     0.0464 H       
  44 H44           -2.4387    -3.9327     0.0042 H       
  45 H45           -0.3202    -2.6850    -0.0154 H       
  46 H46           -5.7390    -4.7155     0.0323 H       
  47 H47           -4.2097    -4.6131    -0.8726 H       
  48 H48           -4.1916    -4.6233     0.9072 H       
@<TRIPOS>BOND
   1    1    2 ar
   2    1    6 ar
   3    1   31 1
   4    2    3 ar
   5    2   16 1
   6    3    4 ar
   7    3   32 1
   8    4    5 ar
   9    4    7 1
  10    5    6 ar
  11    5   10 1
  12    6   33 1
  13    7    8 1
  14    7   11 1
  15    8    9 1
  16    8   13 2
  17    9   10 am
  18    9   14 1
  19   10   15 2
  20   11   12 2
  21   12   13 1
  22   12   17 1
  23   13   34 1
  24   14   35 1
  25   14   36 1
  26   14   37 1
  27   16   24 ar
  28   16   28 ar
  29   17   18 ar
  30   17   22 ar
  31   18   19 ar
  32   18   38 1
  33   19   20 ar
  34   19   23 1
  35   20   21 ar
  36   20   39 1
  37   21   22 ar
  38   21   40 1
  39   22   41 1
  40   24   25 ar
  41   24   42 1
  42   25   26 ar
  43   25   43 1
  44   26   27 ar
  45   26   29 1
  46   27   28 ar
  47   27   44 1
  48   28   45 1
  49   29   30 1
  50   30   46 1
  51   30   47 1
  52   30   48 1

#	End of record

