#	Name: ASD01028097
#	Creating user name:	WinNT
#	Creation time:	15. 06. 2019 18:56

#	Modifying user name:	WinNT
#	Modification time:	15. 06. 2019 18:56

#	Program:	/corina/corina34_cracker 3.40 0067  02.08.2006

@<TRIPOS>MOLECULE
ASD01028097
  85   91    0    0    0
SMALL
NO_CHARGES


@<TRIPOS>ATOM
   1 N1             0.1567     1.4129    -0.1926 N.pl3   
   2 C2             0.1606    -0.0024    -0.2870 C.ar    
   3 C3            -1.0593    -0.6480    -0.1486 C.ar    
   4 C4            -2.2992     0.1680     0.1144 C.3     
   5 C5             1.3216    -0.7259    -0.5051 C.ar    
   6 C6             1.2509    -2.1093    -0.6084 C.ar    
   7 C7             0.0220    -2.7560    -0.4905 C.ar    
   8 C8            -1.1316    -2.0217    -0.2571 C.ar    
   9 O9             2.6177    -0.3311    -0.6449 O.3     
  10 C10            3.4160    -1.5096    -0.7859 C.3     
  11 O11            2.5005    -2.6097    -0.8188 O.3     
  12 O12           -0.0465    -4.1099    -0.6047 O.3     
  13 C13            0.1798    -4.8562     0.5081 C.ar    
  14 C14            0.5454    -4.2485     1.7006 C.ar    
  15 N15            0.7659    -4.9687     2.7826 N.ar    
  16 C16            0.6500    -6.2821     2.7782 C.ar    
  17 C17            0.2894    -6.9591     1.6279 C.ar    
  18 C18            0.0426    -6.2406     0.4695 C.ar    
  19 C19            0.9145    -7.0559     4.0440 C.3     
  20 C20           -3.8692    -1.2934    -1.1436 C.2     
  21 O21           -4.6302    -1.5187    -2.2312 O.3     
  22 O22           -3.7106    -2.1728    -0.3203 O.2     
  23 C23           -5.3305    -2.7891    -2.2940 C.3     
  24 C24           -6.2163    -2.8146    -3.5129 C.ar    
  25 C25           -5.7590    -3.3814    -4.6879 C.ar    
  26 C26           -6.5715    -3.4048    -5.8060 C.ar    
  27 C27           -7.8414    -2.8618    -5.7491 C.ar    
  28 C28           -8.2991    -2.2958    -4.5739 C.ar    
  29 C29           -7.4882    -2.2763    -3.4545 C.ar    
  30 N30           -3.2832    -0.0924    -0.9682 N.am    
  31 C31           -3.5716     1.0754    -1.8426 C.3     
  32 C32           -3.6144     2.3353    -0.9778 C.3     
  33 C33           -3.9875     3.5402    -1.8437 C.3     
  34 C34           -3.3472     4.8045    -1.2674 C.3     
  35 C35           -2.1690     5.2302    -2.1455 C.3     
  36 C36           -1.2325     6.1410    -1.3465 C.3     
  37 C37            1.3745     2.0642    -0.4028 C.ar    
  38 N38            2.5483     1.4710    -0.3633 N.ar    
  39 C39            1.3220     3.4489    -0.7120 C.ar    
  40 C40            2.5411     4.1451    -0.8888 C.ar    
  41 N41            3.6865     3.4541    -0.7859 N.ar    
  42 C42            3.6670     2.1637    -0.5434 C.ar    
  43 C43            0.1003     4.1176    -0.8512 C.ar    
  44 C44            0.0920     5.4468    -1.1584 C.ar    
  45 C45            1.2885     6.1519    -1.3088 C.ar    
  46 C46            2.5050     5.5136    -1.1772 C.ar    
  47 O47            1.2542     7.4803    -1.5883 O.3     
  48 C48            2.5106     8.1460    -1.7305 C.3     
  49 H49           -0.6549     1.9060     0.0049 H       
  50 H50           -2.7282    -0.1185     1.0746 H       
  51 H51           -2.0432     1.2274     0.1281 H       
  52 H52           -2.0829    -2.5235    -0.1597 H       
  53 H53            3.9855    -1.4678    -1.7143 H       
  54 H54            4.0912    -1.6090     0.0640 H       
  55 H55            0.6507    -3.1745     1.7428 H       
  56 H56            0.1968    -8.0351     1.6335 H       
  57 H57           -0.2410    -6.7432    -0.4434 H       
  58 H58            0.0089    -7.0817     4.6501 H       
  59 H59            1.2123    -8.0737     3.7922 H       
  60 H60            1.7137    -6.5718     4.6054 H       
  61 H61           -4.6058    -3.6009    -2.3545 H       
  62 H62           -5.9404    -2.9124    -1.3990 H       
  63 H63           -4.7668    -3.8056    -4.7324 H       
  64 H64           -6.2139    -3.8470    -6.7242 H       
  65 H65           -8.4759    -2.8795    -6.6228 H       
  66 H66           -9.2912    -1.8713    -4.5295 H       
  67 H67           -7.8458    -1.8342    -2.5363 H       
  68 H68           -2.7869     1.1731    -2.5928 H       
  69 H69           -4.5348     0.9358    -2.3334 H       
  70 H70           -4.3577     2.2101    -0.1905 H       
  71 H71           -2.6350     2.5006    -0.5286 H       
  72 H72           -3.6274     3.3820    -2.8603 H       
  73 H73           -5.0713     3.6559    -1.8570 H       
  74 H74           -4.0864     5.6051    -1.2391 H       
  75 H75           -2.9923     4.6032    -0.2567 H       
  76 H76           -1.6225     4.3457    -2.4728 H       
  77 H77           -2.5419     5.7684    -3.0169 H       
  78 H78           -1.0808     7.0738    -1.8896 H       
  79 H79           -1.6740     6.3531    -0.3728 H       
  80 H80            4.6091     1.6387    -0.4875 H       
  81 H81           -0.8295     3.5848    -0.7168 H       
  82 H82            3.4244     6.0679    -1.2954 H       
  83 H83            3.0764     8.0563    -0.8032 H       
  84 H84            3.0733     7.6898    -2.5450 H       
  85 H85            2.3406     9.1996    -1.9519 H       
@<TRIPOS>BOND
   1    1    2 1
   2    1   37 1
   3    1   49 1
   4    2    3 ar
   5    2    5 ar
   6    3    4 1
   7    3    8 ar
   8    4   30 1
   9    4   50 1
  10    4   51 1
  11    5    6 ar
  12    5    9 1
  13    6    7 ar
  14    6   11 1
  15    7    8 ar
  16    7   12 1
  17    8   52 1
  18    9   10 1
  19   10   11 1
  20   10   53 1
  21   10   54 1
  22   12   13 1
  23   13   14 ar
  24   13   18 ar
  25   14   15 ar
  26   14   55 1
  27   15   16 ar
  28   16   17 ar
  29   16   19 1
  30   17   18 ar
  31   17   56 1
  32   18   57 1
  33   19   58 1
  34   19   59 1
  35   19   60 1
  36   20   21 1
  37   20   22 2
  38   20   30 am
  39   21   23 1
  40   23   24 1
  41   23   61 1
  42   23   62 1
  43   24   25 ar
  44   24   29 ar
  45   25   26 ar
  46   25   63 1
  47   26   27 ar
  48   26   64 1
  49   27   28 ar
  50   27   65 1
  51   28   29 ar
  52   28   66 1
  53   29   67 1
  54   30   31 1
  55   31   32 1
  56   31   68 1
  57   31   69 1
  58   32   33 1
  59   32   70 1
  60   32   71 1
  61   33   34 1
  62   33   72 1
  63   33   73 1
  64   34   35 1
  65   34   74 1
  66   34   75 1
  67   35   36 1
  68   35   76 1
  69   35   77 1
  70   36   44 1
  71   36   78 1
  72   36   79 1
  73   37   38 ar
  74   37   39 ar
  75   38   42 ar
  76   39   40 ar
  77   39   43 ar
  78   40   41 ar
  79   40   46 ar
  80   41   42 ar
  81   42   80 1
  82   43   44 ar
  83   43   81 1
  84   44   45 ar
  85   45   46 ar
  86   45   47 1
  87   46   82 1
  88   47   48 1
  89   48   83 1
  90   48   84 1
  91   48   85 1

#	End of record

