#	Name: ASD01811158
#	Creating user name:	WinNT
#	Creation time:	15. 06. 2019 19:26

#	Modifying user name:	WinNT
#	Modification time:	15. 06. 2019 19:26

#	Program:	/corina/corina34_cracker 3.40 0067  02.08.2006

@<TRIPOS>MOLECULE
ASD01811158
  31   32    0    0    0
SMALL
NO_CHARGES


@<TRIPOS>ATOM
   1 C1            -0.0180     1.4731     0.0101 C.2     
   2 C2             0.0021    -0.0041     0.0020 C.ar    
   3 C3             1.2190    -0.6889    -0.0133 C.ar    
   4 C4             1.2309    -2.0681    -0.0203 C.ar    
   5 C5             0.0405    -2.7736    -0.0127 C.ar    
   6 C6            -1.1693    -2.1015     0.0020 C.ar    
   7 C7            -1.1954    -0.7215     0.0154 C.ar    
   8 O8             1.0256     2.0947     0.0035 O.2     
   9 O9            -1.1936     2.1307     0.0193 O.3     
  10 I10           -2.9648    -3.1810     0.0120 I       
  11 C11            2.5166     0.0774    -0.0226 C.3     
  12 C12            2.8143     0.5591    -1.4439 C.3     
  13 C13            0.0614    -4.2804    -0.0210 C.3     
  14 C14            0.7628    -4.8800    -1.2512 C.3     
  15 C15            1.3703    -5.9232    -0.2986 C.3     
  16 C16            1.1960    -4.8853     0.8227 C.3     
  17 H17            2.1715    -2.5987    -0.0322 H       
  18 H18           -2.1399    -0.1980     0.0314 H       
  19 H19           -1.1561     3.0970     0.0244 H       
  20 H20            2.4358     0.9369     0.6429 H       
  21 H21            3.3240    -0.5710     0.3179 H       
  22 H22            2.8951    -0.3004    -2.1094 H       
  23 H23            2.0070     1.2075    -1.7844 H       
  24 H24            3.7528     1.1134    -1.4507 H       
  25 H25           -0.9160    -4.7184     0.1811 H       
  26 H26            0.0748    -5.3046    -1.9823 H       
  27 H27            1.5015    -4.2156    -1.6997 H       
  28 H28            0.7513    -6.8113    -0.1716 H       
  29 H29            2.4118    -6.1595    -0.5168 H       
  30 H30            2.0531    -4.2224     0.9412 H       
  31 H31            0.8577    -5.3142     1.7659 H       
@<TRIPOS>BOND
   1    1    2 1
   2    1    8 2
   3    1    9 1
   4    2    3 ar
   5    2    7 ar
   6    3    4 ar
   7    3   11 1
   8    4    5 ar
   9    4   17 1
  10    5    6 ar
  11    5   13 1
  12    6    7 ar
  13    6   10 1
  14    7   18 1
  15    9   19 1
  16   11   12 1
  17   11   20 1
  18   11   21 1
  19   12   22 1
  20   12   23 1
  21   12   24 1
  22   13   14 1
  23   13   16 1
  24   13   25 1
  25   14   15 1
  26   14   26 1
  27   14   27 1
  28   15   16 1
  29   15   28 1
  30   15   29 1
  31   16   30 1
  32   16   31 1

#	End of record

