#	Name: ASD01230296
#	Creating user name:	WinNT
#	Creation time:	15. 06. 2019 19:12

#	Modifying user name:	WinNT
#	Modification time:	15. 06. 2019 19:12

#	Program:	/corina/corina34_cracker 3.40 0067  02.08.2006

@<TRIPOS>MOLECULE
ASD01230296
  40   42    0    0    0
SMALL
NO_CHARGES


@<TRIPOS>ATOM
   1 S1            -0.2211    -2.6251     4.3945 S.o2    
   2 N2            -0.3194    -2.5604     2.7443 N.am    
   3 C3            -1.2662    -1.8932     2.1234 C.2     
   4 N4            -2.2625    -1.1860     2.7309 N.pl3   
   5 C5            -2.4610    -1.1291     4.1814 C.3     
   6 C6            -1.1132    -1.1235     4.9088 C.3     
   7 C7            -1.2163    -1.9349     0.6944 C.2     
   8 C8            -2.1252    -1.2426    -0.0381 C.2     
   9 C9            -3.1102    -0.4875     0.6238 C.2     
  10 C10           -3.1584    -0.4740     1.9664 C.2     
  11 O11           -0.2572    -2.6685     0.0694 O.3     
  12 C12           -0.2991    -4.0198     0.2034 C.ar    
  13 C13           -1.3644    -4.6206     0.8592 C.ar    
  14 C14           -1.4048    -5.9947     0.9937 C.ar    
  15 C15           -0.3847    -6.7716     0.4760 C.ar    
  16 C16            0.6782    -6.1755    -0.1775 C.ar    
  17 C17            0.7204    -4.8023    -0.3202 C.ar    
  18 C18           -0.4313    -8.2705     0.6247 C.3     
  19 C19           -0.4369    -8.9205    -0.7603 C.3     
  20 C20            0.7966    -8.7439     1.4052 C.3     
  21 O21           -0.9501    -3.7917     4.7507 O.2     
  22 O22            1.1671    -2.5078     4.6748 O.2     
  23 H23           -3.0096    -0.2217     4.4340 H       
  24 H24           -3.0377    -1.9976     4.4997 H       
  25 H25           -1.2729    -1.1371     5.9869 H       
  26 H26           -0.5430    -0.2381     4.6278 H       
  27 H27           -2.0923    -1.2709    -1.1173 H       
  28 H28           -3.8283     0.0818     0.0523 H       
  29 H29           -3.9205     0.1117     2.4590 H       
  30 H30           -2.1610    -4.0142     1.2644 H       
  31 H31           -2.2336    -6.4627     1.5040 H       
  32 H32            1.4739    -6.7846    -0.5802 H       
  33 H33            1.5486    -4.3376    -0.8346 H       
  34 H34           -1.3356    -8.5543     1.1630 H       
  35 H35            0.4674    -8.6366    -1.2986 H       
  36 H36           -0.4706   -10.0046    -0.6528 H       
  37 H37           -1.3117    -8.5832    -1.3164 H       
  38 H38            0.8006    -8.2809     2.3920 H       
  39 H39            0.7629    -9.8281     1.5128 H       
  40 H40            1.7009    -8.4601     0.8670 H       
@<TRIPOS>BOND
   1    1    2 am
   2    1    6 1
   3    1   21 2
   4    1   22 2
   5    2    3 2
   6    3    4 1
   7    3    7 1
   8    4    5 1
   9    4   10 1
  10    5    6 1
  11    5   23 1
  12    5   24 1
  13    6   25 1
  14    6   26 1
  15    7    8 2
  16    7   11 1
  17    8    9 1
  18    8   27 1
  19    9   10 2
  20    9   28 1
  21   10   29 1
  22   11   12 1
  23   12   13 ar
  24   12   17 ar
  25   13   14 ar
  26   13   30 1
  27   14   15 ar
  28   14   31 1
  29   15   16 ar
  30   15   18 1
  31   16   17 ar
  32   16   32 1
  33   17   33 1
  34   18   19 1
  35   18   20 1
  36   18   34 1
  37   19   35 1
  38   19   36 1
  39   19   37 1
  40   20   38 1
  41   20   39 1
  42   20   40 1

#	End of record

