#	Name: ASD00960017
#	Creating user name:	WinNT
#	Creation time:	15. 06. 2019 18:53

#	Modifying user name:	WinNT
#	Modification time:	15. 06. 2019 18:53

#	Program:	/corina/corina34_cracker 3.40 0067  02.08.2006

@<TRIPOS>MOLECULE
ASD00960017
  37   38    0    0    0
SMALL
NO_CHARGES


@<TRIPOS>ATOM
   1 O1            -0.0173     1.4248     0.0099 O.3     
   2 C2            -1.4364    -0.5762     0.0127 C.3     
   3 C3             0.0021    -0.0041     0.0020 C.3     
   4 C4             0.5811    -0.5567     1.3293 C.3     
   5 O5             0.0030    -1.8762     1.4255 O.3     
   6 C6            -1.3609    -1.7699     0.9842 C.3     
   7 C7            -1.7761    -3.0542     0.2636 C.3     
   8 O8            -2.3603     0.4023     0.4934 O.3     
   9 O9            -1.7030    -4.1549     1.1719 O.3     
  10 *10           -2.0677    -5.3927     0.6035 Du      
  11 N11           -2.2391    -1.5338     2.1328 N.2     
  12 N12           -2.3143    -2.3018     2.9500 N.1     
  13 N13           -2.3895    -3.0698     3.7673 N.pl3   
  14 C14            2.0842    -0.6398     1.2587 C.2     
  15 O15            2.6325    -1.7155     1.3033 O.2     
  16 O16            2.8138     0.4813     1.1462 O.3     
  17 C17            4.2560     0.3257     1.0835 C.3     
  18 C18            4.9026     1.6813     0.9595 C.ar    
  19 C19            5.2597     2.3833     2.0955 C.ar    
  20 C20            5.8528     3.6268     1.9817 C.ar    
  21 C21            6.0892     4.1680     0.7318 C.ar    
  22 C22            5.7330     3.4655    -0.4042 C.ar    
  23 C23            5.1439     2.2202    -0.2905 C.ar    
  24 H24            0.8606     1.8301     0.0037 H       
  25 H25           -1.7204    -0.9130    -0.9843 H       
  26 H26            0.5636    -0.3794    -0.8535 H       
  27 H27            0.2690     0.0614     2.1711 H       
  28 H28           -2.7980    -2.9517    -0.1016 H       
  29 H29           -1.1058    -3.2319    -0.5773 H       
  30 H30           -2.4047     1.2014    -0.0493 H       
  31 H31            4.6085    -0.1632     1.9917 H       
  32 H32            4.5186    -0.2827     0.2181 H       
  33 H33            5.0750     1.9605     3.0719 H       
  34 H34            6.1311     4.1756     2.8692 H       
  35 H35            6.5519     5.1398     0.6429 H       
  36 H36            5.9174     3.8885    -1.3807 H       
  37 H37            4.8690     1.6697    -1.1781 H       
@<TRIPOS>BOND
   1    1    3 1
   2    1   24 1
   3    2    3 1
   4    2    6 1
   5    2    8 1
   6    2   25 1
   7    3    4 1
   8    3   26 1
   9    4    5 1
  10    4   14 1
  11    4   27 1
  12    5    6 1
  13    6    7 1
  14    6   11 1
  15    7    9 1
  16    7   28 1
  17    7   29 1
  18    8   30 1
  19    9   10 1
  20   11   12 2
  21   12   13 2
  22   14   15 2
  23   14   16 1
  24   16   17 1
  25   17   18 1
  26   17   31 1
  27   17   32 1
  28   18   19 ar
  29   18   23 ar
  30   19   20 ar
  31   19   33 1
  32   20   21 ar
  33   20   34 1
  34   21   22 ar
  35   21   35 1
  36   22   23 ar
  37   22   36 1
  38   23   37 1

#	End of record

