#	Name: ASD01903345
#	Creating user name:	WinNT
#	Creation time:	15. 06. 2019 19:54

#	Modifying user name:	WinNT
#	Modification time:	15. 06. 2019 19:54

#	Program:	/corina/corina34_cracker 3.40 0067  02.08.2006

@<TRIPOS>MOLECULE
ASD01903345
  41   44    0    0    0
SMALL
NO_CHARGES


@<TRIPOS>ATOM
   1 C1            -0.0224     1.3671     0.1886 C.ar    
   2 C2             0.0109    -0.0068     0.3038 C.ar    
   3 C3             1.2073    -0.6990     0.1544 C.ar    
   4 C4             2.3666    -0.0069    -0.1108 C.ar    
   5 C5             2.3303     1.3781    -0.2269 C.ar    
   6 C6             1.1424     2.0625    -0.0779 C.ar    
   7 S7             1.5176    -2.4325     0.2532 S.o2    
   8 N8             3.1427    -2.6377    -0.0147 N.am    
   9 S9             3.7377    -1.1071    -0.2549 S.o2    
  10 O10            4.1623    -1.0473    -1.6096 O.2     
  11 O11            4.5943    -0.8302     0.8446 O.2     
  12 O12            1.2807    -2.8085     1.6029 O.2     
  13 O13            0.8487    -3.0256    -0.8514 O.2     
  14 C14            3.8565    -3.8406    -0.0336 C.ar    
  15 C15            5.2243    -3.8328    -0.2751 C.ar    
  16 C16            5.9288    -5.0200    -0.2932 C.ar    
  17 C17            5.2699    -6.2219    -0.0700 C.ar    
  18 C18            3.9023    -6.2299     0.1711 C.ar    
  19 C19            3.1986    -5.0423     0.1949 C.ar    
  20 N20            5.9847    -7.4262    -0.0884 N.am    
  21 C21            5.4120    -8.5423    -0.5811 C.2     
  22 C22            6.1995    -9.7883    -0.6960 C.ar    
  23 O23            4.2479    -8.5245    -0.9310 O.2     
  24 C24            5.6002   -10.9415    -1.2073 C.ar    
  25 C25            6.3530   -12.1034    -1.3089 C.ar    
  26 C26            7.6770   -12.0713    -0.8960 C.ar    
  27 C27            8.2065   -10.8870    -0.3970 C.ar    
  28 N28            7.4727    -9.8002    -0.3170 N.ar    
  29 F29            4.3068   -10.9265    -1.5971 F       
  30 F30            8.4441   -13.1804    -0.9776 F       
  31 H31           -0.9563     1.8977     0.3018 H       
  32 H32           -0.8995    -0.5492     0.5120 H       
  33 H33            3.2397     1.9222    -0.4351 H       
  34 H34            1.1219     3.1384    -0.1699 H       
  35 H35            5.7366    -2.8981    -0.4491 H       
  36 H36            6.9922    -5.0139    -0.4814 H       
  37 H37            3.3899    -7.1647     0.3443 H       
  38 H38            2.1350    -5.0485     0.3823 H       
  39 H39            6.8920    -7.4570     0.2535 H       
  40 H40            5.9180   -13.0113    -1.6999 H       
  41 H41            9.2367   -10.8587    -0.0744 H       
@<TRIPOS>BOND
   1    1    2 ar
   2    1    6 ar
   3    1   31 1
   4    2    3 ar
   5    2   32 1
   6    3    4 ar
   7    3    7 1
   8    4    5 ar
   9    4    9 1
  10    5    6 ar
  11    5   33 1
  12    6   34 1
  13    7    8 am
  14    7   12 2
  15    7   13 2
  16    8    9 am
  17    8   14 1
  18    9   10 2
  19    9   11 2
  20   14   15 ar
  21   14   19 ar
  22   15   16 ar
  23   15   35 1
  24   16   17 ar
  25   16   36 1
  26   17   18 ar
  27   17   20 1
  28   18   19 ar
  29   18   37 1
  30   19   38 1
  31   20   21 am
  32   20   39 1
  33   21   22 1
  34   21   23 2
  35   22   24 ar
  36   22   28 ar
  37   24   25 ar
  38   24   29 1
  39   25   26 ar
  40   25   40 1
  41   26   27 ar
  42   26   30 1
  43   27   28 ar
  44   27   41 1

#	End of record

