#	Name: ASD01812714
#	Creating user name:	WinNT
#	Creation time:	15. 06. 2019 19:29

#	Modifying user name:	WinNT
#	Modification time:	15. 06. 2019 19:29

#	Program:	/corina/corina34_cracker 3.40 0067  02.08.2006

@<TRIPOS>MOLECULE
ASD01812714
  53   57    0    0    0
SMALL
NO_CHARGES


@<TRIPOS>ATOM
   1 C1             0.0577     1.4304    -0.6145 C.ar    
   2 C2             0.1013     0.0681    -0.8343 C.ar    
   3 C3             1.2833    -0.6330    -0.6482 C.ar    
   4 C4             2.4191     0.0258    -0.2438 C.ar    
   5 C5             2.3933     1.4052    -0.0169 C.ar    
   6 C6             1.1963     2.1093    -0.2059 C.ar    
   7 C7             3.8294    -0.4261     0.0430 C.3     
   8 N8             4.5723     0.7762     0.4378 N.am    
   9 C9             3.7391     1.8304     0.4017 C.2     
  10 C10            5.9884     0.8203     0.8104 C.3     
  11 C11            6.8241     1.0650    -0.4196 C.ar    
  12 C12            7.1230     2.3590    -0.8044 C.ar    
  13 C13            7.8887     2.5864    -1.9312 C.ar    
  14 C14            8.3583     1.5142    -2.6777 C.ar    
  15 C15            8.0565     0.2160    -2.2888 C.ar    
  16 C16            7.2951    -0.0052    -1.1578 C.ar    
  17 O17            1.1515     3.4479     0.0091 O.3     
  18 O18            4.0523     2.9728     0.6761 O.2     
  19 C19           -0.1276     4.0779    -0.0868 C.3     
  20 N20            9.5134     2.9928    -4.3265 N.2     
  21 N21            9.1353     1.7418    -3.8221 N.pl3   
  22 C22            9.6532     0.7926    -4.6341 C.2     
  23 C23           10.3359     1.4211    -5.6190 C.2     
  24 C24           10.2325     2.7997    -5.4028 C.2     
  25 C25           -0.1314     5.3599     0.7516 C.3     
  26 C26           -1.4777     6.0684     0.5802 C.3     
  27 O27           -1.6961     6.3448    -0.8047 O.3     
  28 C28           -1.7496     5.1800    -1.6308 C.3     
  29 C29           -0.4142     4.4358    -1.5483 C.3     
  30 O30            0.0631     5.0306     2.1285 O.3     
  31 H31           -0.8654     1.9703    -0.7655 H       
  32 H32           -0.7890    -0.4540    -1.1523 H       
  33 H33            1.3109    -1.6987    -0.8211 H       
  34 H34            3.8323    -1.1522     0.8559 H       
  35 H35            4.2721    -0.8631    -0.8521 H       
  36 H36            6.1508     1.6261     1.5263 H       
  37 H37            6.2751    -0.1297     1.2614 H       
  38 H38            6.7571     3.1928    -0.2235 H       
  39 H39            8.1216     3.5974    -2.2315 H       
  40 H40            8.4201    -0.6201    -2.8677 H       
  41 H41            7.0640    -1.0149    -0.8521 H       
  42 H42           -0.8969     3.3991     0.2814 H       
  43 H43            9.5422    -0.2753    -4.5174 H       
  44 H44           10.8671     0.9431    -6.4288 H       
  45 H45           10.6707     3.5715    -6.0182 H       
  46 H46            0.6712     6.0168     0.4163 H       
  47 H47           -2.2761     5.4269     0.9532 H       
  48 H48           -1.4705     7.0032     1.1407 H       
  49 H49           -2.5515     4.5269    -1.2868 H       
  50 H50           -1.9382     5.4748    -2.6631 H       
  51 H51            0.3827     5.0740    -1.9300 H       
  52 H52           -0.4681     3.5238    -2.1428 H       
  53 H53            0.0716     5.7966     2.7186 H       
@<TRIPOS>BOND
   1    1    2 ar
   2    1    6 ar
   3    1   31 1
   4    2    3 ar
   5    2   32 1
   6    3    4 ar
   7    3   33 1
   8    4    7 1
   9    4    5 ar
  10    5    6 ar
  11    5    9 1
  12    6   17 1
  13    7    8 1
  14    7   34 1
  15    7   35 1
  16    8    9 am
  17    8   10 1
  18    9   18 2
  19   10   11 1
  20   10   36 1
  21   10   37 1
  22   11   12 ar
  23   11   16 ar
  24   12   13 ar
  25   12   38 1
  26   13   14 ar
  27   13   39 1
  28   14   15 ar
  29   14   21 1
  30   15   16 ar
  31   15   40 1
  32   16   41 1
  33   17   19 1
  34   19   25 1
  35   19   29 1
  36   19   42 1
  37   20   21 1
  38   20   24 2
  39   21   22 1
  40   22   23 2
  41   22   43 1
  42   23   24 1
  43   23   44 1
  44   24   45 1
  45   25   26 1
  46   25   30 1
  47   25   46 1
  48   26   27 1
  49   26   47 1
  50   26   48 1
  51   27   28 1
  52   28   29 1
  53   28   49 1
  54   28   50 1
  55   29   51 1
  56   29   52 1
  57   30   53 1

#	End of record

