#	Name: ASD00843261
#	Creating user name:	WinNT
#	Creation time:	15. 06. 2019 18:46

#	Modifying user name:	WinNT
#	Modification time:	15. 06. 2019 18:46

#	Program:	/corina/corina34_cracker 3.40 0067  02.08.2006

@<TRIPOS>MOLECULE
ASD00843261
  97  102    0    0    0
SMALL
NO_CHARGES


@<TRIPOS>ATOM
   1 N1             0.7381     1.1421    -0.6139 N.ar    
   2 C2             0.9536    -0.1466    -0.8180 C.ar    
   3 C3             0.8947    -1.0497     0.2359 C.ar    
   4 C4             0.6069    -0.5837     1.5066 C.ar    
   5 C5             0.3870     0.7762     1.6790 C.ar    
   6 C6             0.4615     1.6163     0.5862 C.ar    
   7 C7             1.1406    -2.5175    -0.0017 C.3     
   8 C8             0.8854    -3.3094     1.2631 C.2     
   9 C9             0.2585    -3.0297    -1.1420 C.3     
  10 C10           -1.1826    -2.6996    -0.8495 C.2     
  11 N11           -2.1520    -3.1093    -1.6914 N.am    
  12 O12           -1.4699    -2.0655     0.1436 O.2     
  13 C13           -3.5466    -2.6954    -1.4853 C.3     
  14 C14           -4.4313    -3.9454    -1.4465 C.3     
  15 C15           -4.2010    -4.7681    -2.7163 C.3     
  16 C16           -2.7381    -5.2134    -2.7793 C.3     
  17 C17           -1.8334    -3.9732    -2.8363 C.3     
  18 N18           -5.0722    -5.9507    -2.6980 N.3     
  19 C19           -4.9655    -6.7030    -3.9559 C.3     
  20 C20           -5.8249    -7.9662    -3.8662 C.3     
  21 N21           -7.2196    -7.5888    -3.5984 N.3     
  22 C22           -7.3263    -6.8365    -2.3404 C.3     
  23 C23           -6.4670    -5.5732    -2.4301 C.3     
  24 C24           -8.0908    -8.7714    -3.5801 C.3     
  25 O25           -0.1662    -3.3914     1.8618 O.2     
  26 N26            2.0428    -3.9042     1.5979 N.am    
  27 C27            2.6002    -2.7677    -0.3040 C.ar    
  28 C28            3.0688    -3.6070     0.6993 C.ar    
  29 C29            3.4344    -2.3363    -1.3106 C.ar    
  30 C30            4.7591    -2.7394    -1.3306 C.ar    
  31 C31            5.2390    -3.5763    -0.3358 C.ar    
  32 C32            4.4021    -4.0097     0.6748 C.ar    
  33 Cl33           5.8149    -2.1985    -2.5981 Cl      
  34 F34            6.5311    -3.9704    -0.3540 F       
  35 C35            1.8687    -6.5259     2.4167 C.ar    
  36 C36            0.5863    -6.8585     2.0044 C.ar    
  37 C37            2.8638    -7.4848     2.4243 C.ar    
  38 C38            2.5848    -8.7764     2.0211 C.ar    
  39 C39            1.3035    -9.1141     1.6078 C.ar    
  40 C40            0.3036    -8.1542     1.5998 C.ar    
  41 O41            1.0295   -10.3849     1.2118 O.3     
  42 O42           -0.3919    -5.9152     1.9976 O.3     
  43 C43            2.1079   -11.3219     1.2462 C.3     
  44 C44           -1.6884    -6.3282     1.5610 C.3     
  45 C45           -2.6497    -5.1395     1.6217 C.3     
  46 C46           -9.4739    -8.3779    -3.0573 C.3     
  47 O47            1.2345    -0.5910    -2.0688 O.3     
  48 C48            1.2020     0.3737    -3.1226 C.3     
  49 C49            1.6327    -0.2879    -4.4332 C.3     
  50 F50            2.8977    -0.8629    -4.2715 F       
  51 F51            0.7099    -1.2807    -4.7796 F       
  52 S52            2.2305    -4.8778     2.9242 S.o2    
  53 O53            3.6139    -4.8523     3.2482 O.2     
  54 O54            1.2105    -4.5073     3.8415 O.2     
  55 H55            0.5542    -1.2624     2.3450 H       
  56 H56            0.1597     1.1725     2.6577 H       
  57 H57            0.2916     2.6750     0.7150 H       
  58 H58            0.5581    -2.5530    -2.0754 H       
  59 H59            0.3726    -4.1099    -1.2326 H       
  60 H60           -3.6324    -2.1576    -0.5411 H       
  61 H61           -3.8614    -2.0503    -2.3055 H       
  62 H62           -4.1756    -4.5452    -0.5730 H       
  63 H63           -5.4786    -3.6484    -1.3905 H       
  64 H64           -4.4333    -4.1597    -3.5903 H       
  65 H65           -2.4983    -5.8012    -1.8932 H       
  66 H66           -2.5802    -5.8188    -3.6718 H       
  67 H67           -2.0098    -3.4347    -3.7675 H       
  68 H68           -0.7889    -4.2800    -2.7815 H       
  69 H69           -5.3155    -6.0829    -4.7812 H       
  70 H70           -3.9256    -6.9819    -4.1258 H       
  71 H71           -5.7701    -8.5110    -4.8088 H       
  72 H72           -5.4578    -8.5991    -3.0582 H       
  73 H73           -8.3663    -6.5576    -2.1706 H       
  74 H74           -6.9763    -7.4566    -1.5151 H       
  75 H75           -6.5217    -5.0285    -1.4876 H       
  76 H76           -6.8340    -4.9404    -3.2381 H       
  77 H77           -8.1841    -9.1696    -4.5904 H       
  78 H78           -7.6587    -9.5310    -2.9286 H       
  79 H79            3.0560    -1.6844    -2.0840 H       
  80 H80            4.7825    -4.6616     1.4472 H       
  81 H81            3.8614    -7.2240     2.7455 H       
  82 H82            3.3643    -9.5239     2.0272 H       
  83 H83           -0.6941    -8.4151     1.2788 H       
  84 H84            2.9093   -10.9777     0.5924 H       
  85 H85            2.4826   -11.4074     2.2662 H       
  86 H86            1.7544   -12.2953     0.9062 H       
  87 H87           -1.6272    -6.6941     0.5361 H       
  88 H88           -2.0537    -7.1244     2.2098 H       
  89 H89           -2.7109    -4.7736     2.6466 H       
  90 H90           -2.2844    -4.3434     0.9729 H       
  91 H91           -3.6386    -5.4545     1.2887 H       
  92 H92           -9.3806    -7.9797    -2.0469 H       
  93 H93           -9.9060    -7.6184    -3.7087 H       
  94 H94          -10.1203    -9.2554    -3.0437 H       
  95 H95            0.1893     0.7630    -3.2277 H       
  96 H96            1.8830     1.1917    -2.8875 H       
  97 H97            1.6728     0.4624    -5.2229 H       
@<TRIPOS>BOND
   1    1    2 ar
   2    1    6 ar
   3    2    3 ar
   4    2   47 1
   5    3    4 ar
   6    3    7 1
   7    4    5 ar
   8    4   55 1
   9    5    6 ar
  10    5   56 1
  11    6   57 1
  12    7    8 1
  13    7    9 1
  14    7   27 1
  15    8   25 2
  16    8   26 am
  17    9   10 1
  18    9   58 1
  19    9   59 1
  20   10   11 am
  21   10   12 2
  22   11   13 1
  23   11   17 1
  24   13   14 1
  25   13   60 1
  26   13   61 1
  27   14   15 1
  28   14   62 1
  29   14   63 1
  30   15   16 1
  31   15   18 1
  32   15   64 1
  33   16   17 1
  34   16   65 1
  35   16   66 1
  36   17   67 1
  37   17   68 1
  38   18   19 1
  39   18   23 1
  40   19   20 1
  41   19   69 1
  42   19   70 1
  43   20   21 1
  44   20   71 1
  45   20   72 1
  46   21   22 1
  47   21   24 1
  48   22   23 1
  49   22   73 1
  50   22   74 1
  51   23   75 1
  52   23   76 1
  53   24   46 1
  54   24   77 1
  55   24   78 1
  56   26   52 am
  57   26   28 1
  58   27   28 ar
  59   27   29 ar
  60   28   32 ar
  61   29   30 ar
  62   29   79 1
  63   30   31 ar
  64   30   33 1
  65   31   32 ar
  66   31   34 1
  67   32   80 1
  68   35   36 ar
  69   35   37 ar
  70   35   52 1
  71   36   42 1
  72   36   40 ar
  73   37   38 ar
  74   37   81 1
  75   38   39 ar
  76   38   82 1
  77   39   40 ar
  78   39   41 1
  79   40   83 1
  80   41   43 1
  81   42   44 1
  82   43   84 1
  83   43   85 1
  84   43   86 1
  85   44   45 1
  86   44   87 1
  87   44   88 1
  88   45   89 1
  89   45   90 1
  90   45   91 1
  91   46   92 1
  92   46   93 1
  93   46   94 1
  94   47   48 1
  95   48   49 1
  96   48   95 1
  97   48   96 1
  98   49   50 1
  99   49   51 1
 100   49   97 1
 101   52   53 2
 102   52   54 2

#	End of record

