#	Name: ASD03092035
#	Creating user name:	WinNT
#	Creation time:	15. 06. 2019 20:31

#	Modifying user name:	WinNT
#	Modification time:	15. 06. 2019 20:31

#	Program:	/corina/corina34_cracker 3.40 0067  02.08.2006

@<TRIPOS>MOLECULE
ASD03092035
  43   45    0    0    0
SMALL
NO_CHARGES


@<TRIPOS>ATOM
   1 N1             0.1392     1.5178     0.0349 N.am    
   2 C2             0.1264     0.1491    -0.0403 C.2     
   3 C3            -1.1783    -0.2435    -0.0880 C.2     
   4 C4            -1.9764     0.9108    -0.0408 C.2     
   5 N5            -1.1904     1.9584     0.0385 N.2     
   6 C6             1.2352     2.2995     0.0998 C.2     
   7 N7             1.1098     3.6407     0.0566 N.am    
   8 N8            -3.3734     0.9388    -0.0680 N.pl3   
   9 C9            -4.0508     2.1512     0.0839 C.ar    
  10 C10           -3.5045     3.3225    -0.4251 C.ar    
  11 C11           -4.1772     4.5193    -0.2735 C.ar    
  12 C12           -5.3931     4.5522     0.3841 C.ar    
  13 C13           -5.9398     3.3879     0.8926 C.ar    
  14 C14           -5.2754     2.1872     0.7395 C.ar    
  15 C15            1.3094    -0.7378    -0.0651 C.ar    
  16 C16            1.3004    -1.9676     0.6027 C.ar    
  17 C17            2.4260    -2.7636     0.5533 C.ar    
  18 N18            3.4992    -2.3790    -0.1107 N.ar    
  19 C19            3.5497    -1.2278    -0.7537 C.ar    
  20 C20            2.4674    -0.3732    -0.7621 C.ar    
  21 C21            2.3012     4.4904     0.1270 C.3     
  22 C22            4.8052    -0.8444    -1.4939 C.3     
  23 O23            2.3364     1.7950     0.1972 O.2     
  24 C24           -3.5850     5.7906    -0.8249 C.3     
  25 F25           -4.0255     5.9784    -2.1394 F       
  26 F26           -3.9909     6.8737    -0.0379 F       
  27 F27           -2.1891     5.6999    -0.8093 F       
  28 H28           -1.5345    -1.2611    -0.1512 H       
  29 H29            0.2308     4.0434    -0.0212 H       
  30 H30           -3.8726     0.1165    -0.1925 H       
  31 H31           -2.5547     3.2975    -0.9385 H       
  32 H32           -5.9170     5.4894     0.5013 H       
  33 H33           -6.8893     3.4173     1.4063 H       
  34 H34           -5.7028     1.2784     1.1369 H       
  35 H35            0.4257    -2.2885     1.1488 H       
  36 H36            2.4288    -3.7145     1.0655 H       
  37 H37            2.5157     0.5674    -1.2908 H       
  38 H38            2.8248     4.3050     1.0649 H       
  39 H39            2.9614     4.2606    -0.7093 H       
  40 H40            2.0038     5.5379     0.0779 H       
  41 H41            4.7481    -1.2094    -2.5195 H       
  42 H42            4.9066     0.2408    -1.4996 H       
  43 H43            5.6689    -1.2875    -0.9982 H       
@<TRIPOS>BOND
   1    1    2 1
   2    1    6 am
   3    1    5 1
   4    2    3 2
   5    2   15 1
   6    3    4 1
   7    3   28 1
   8    4    5 2
   9    4    8 1
  10    6    7 am
  11    6   23 2
  12    7   21 1
  13    7   29 1
  14    8    9 1
  15    8   30 1
  16    9   10 ar
  17    9   14 ar
  18   10   11 ar
  19   10   31 1
  20   11   12 ar
  21   11   24 1
  22   12   13 ar
  23   12   32 1
  24   13   14 ar
  25   13   33 1
  26   14   34 1
  27   15   16 ar
  28   15   20 ar
  29   16   17 ar
  30   16   35 1
  31   17   18 ar
  32   17   36 1
  33   18   19 ar
  34   19   20 ar
  35   19   22 1
  36   20   37 1
  37   21   38 1
  38   21   39 1
  39   21   40 1
  40   22   41 1
  41   22   42 1
  42   22   43 1
  43   24   25 1
  44   24   26 1
  45   24   27 1

#	End of record

