#	Name: ASD01815815
#	Creating user name:	WinNT
#	Creation time:	15. 06. 2019 19:34

#	Modifying user name:	WinNT
#	Modification time:	15. 06. 2019 19:34

#	Program:	/corina/corina34_cracker 3.40 0067  02.08.2006

@<TRIPOS>MOLECULE
ASD01815815
  54   58    0    0    0
SMALL
NO_CHARGES


@<TRIPOS>ATOM
   1 C1            -0.0168     1.3869     0.0097 C.ar    
   2 C2             0.0021    -0.0041     0.0020 C.ar    
   3 C3             1.1801    -0.6897    -0.0129 C.ar    
   4 C4             2.3948     0.0129    -0.0207 C.ar    
   5 C5             2.3717     1.4290    -0.0129 C.ar    
   6 C6             1.1455     2.1015     0.0024 C.ar    
   7 C7             3.6293    -0.6694    -0.0365 C.ar    
   8 C8             4.8031     0.0063    -0.0446 C.ar    
   9 C9             4.8359     1.4095    -0.0374 C.ar    
  10 C10            3.6406     2.1511    -0.0211 C.ar    
  11 C11            6.1026     2.1526    -0.0470 C.2     
  12 N12            6.0328     3.5041    -0.0399 N.am    
  13 C13            4.8302     4.1313    -0.0241 C.2     
  14 N14            3.6961     3.4935    -0.0158 N.2     
  15 C15            7.2655     4.2957    -0.0490 C.3     
  16 C16            7.2933     5.1852    -1.2950 C.3     
  17 C17            7.3153     5.1793     1.2005 C.3     
  18 C18            8.5745     6.0478     1.1553 C.3     
  19 N19            8.5533     6.8803    -0.0543 N.3     
  20 C20            8.5531     6.0535    -1.2679 C.3     
  21 O21            7.1745     1.5748    -0.0604 O.2     
  22 C22            3.6424    -2.1763    -0.0442 C.3     
  23 C23            3.5087    -2.6726    -1.4608 C.ar    
  24 C24            4.6367    -2.8928    -2.2367 C.ar    
  25 C25            4.4664    -3.3494    -3.5343 C.ar    
  26 C26            3.1855    -3.5688    -4.0089 C.ar    
  27 N27            2.1348    -3.3481    -3.2413 N.ar    
  28 C28            2.2607    -2.9192    -2.0006 C.ar    
  29 Cl29           2.9576    -4.1401    -5.6323 Cl      
  30 C30            9.6771     7.8264    -0.0620 C.3     
  31 O31            7.3462     4.3546     2.3671 O.3     
  32 H32           -0.9630     1.9076     0.0169 H       
  33 H33           -0.9305    -0.5488     0.0083 H       
  34 H34            1.1786    -1.7697    -0.0183 H       
  35 H35            1.1188     3.1811     0.0081 H       
  36 H36            5.7317    -0.5451    -0.0563 H       
  37 H37            4.8132     5.2111    -0.0182 H       
  38 H38            8.1271     3.6281    -0.0587 H       
  39 H39            7.3011     4.5603    -2.1881 H       
  40 H40            6.4107     5.8247    -1.3053 H       
  41 H41            6.4331     5.8187     1.2295 H       
  42 H42            8.6057     6.6885     2.0366 H       
  43 H43            9.4568     5.4079     1.1403 H       
  44 H44            9.4355     5.4135    -1.2715 H       
  45 H45            8.5688     6.6983    -2.1466 H       
  46 H46            4.5813    -2.5336     0.3789 H       
  47 H47            2.8098    -2.5499     0.5518 H       
  48 H48            5.6246    -2.7124    -1.8395 H       
  49 H49            5.3226    -3.5313    -4.1669 H       
  50 H50            1.3776    -2.7501    -1.4022 H       
  51 H51           10.6167     7.2747    -0.0338 H       
  52 H52            9.6373     8.4303    -0.9685 H       
  53 H53            9.6110     8.4761     0.8107 H       
  54 H54            7.3785     4.8490     3.1976 H       
@<TRIPOS>BOND
   1    1    2 ar
   2    1    6 ar
   3    1   32 1
   4    2    3 ar
   5    2   33 1
   6    3    4 ar
   7    3   34 1
   8    4    5 ar
   9    4    7 ar
  10    5    6 ar
  11    5   10 ar
  12    6   35 1
  13    7    8 ar
  14    7   22 1
  15    8    9 ar
  16    8   36 1
  17    9   10 ar
  18    9   11 1
  19   10   14 1
  20   11   12 am
  21   11   21 2
  22   12   13 1
  23   12   15 1
  24   13   14 2
  25   13   37 1
  26   15   16 1
  27   15   17 1
  28   15   38 1
  29   16   20 1
  30   16   39 1
  31   16   40 1
  32   17   18 1
  33   17   31 1
  34   17   41 1
  35   18   19 1
  36   18   42 1
  37   18   43 1
  38   19   20 1
  39   19   30 1
  40   20   44 1
  41   20   45 1
  42   22   23 1
  43   22   46 1
  44   22   47 1
  45   23   24 ar
  46   23   28 ar
  47   24   25 ar
  48   24   48 1
  49   25   26 ar
  50   25   49 1
  51   26   27 ar
  52   26   29 1
  53   27   28 ar
  54   28   50 1
  55   30   51 1
  56   30   52 1
  57   30   53 1
  58   31   54 1

#	End of record

