#	Name: ASD01916757
#	Creating user name:	WinNT
#	Creation time:	15. 06. 2019 20:07

#	Modifying user name:	WinNT
#	Modification time:	15. 06. 2019 20:07

#	Program:	/corina/corina34_cracker 3.40 0067  02.08.2006

@<TRIPOS>MOLECULE
ASD01916757
  62   65    0    0    0
SMALL
NO_CHARGES


@<TRIPOS>ATOM
   1 C1            -0.0168     1.3841     0.0097 C.ar    
   2 C2             0.0021    -0.0041     0.0020 C.ar    
   3 C3             1.2121    -0.6845    -0.0132 C.ar    
   4 C4             2.3993     0.0172    -0.0203 C.ar    
   5 C5             2.3835     1.4108    -0.0126 C.ar    
   6 C6             1.1673     2.0911     0.0021 C.ar    
   7 C7             3.6591     2.1687    -0.0197 C.2     
   8 N8             3.7745     3.5035    -0.0136 N.2     
   9 N9             4.8639     1.6415    -0.0274 N.2     
  10 N10            5.7730     2.7119    -0.0312 N.pl3   
  11 C11            5.0378     3.8382    -0.0220 C.2     
  12 C12            5.5783     5.2449    -0.0226 C.3     
  13 C13            5.7493     5.7250    -1.4653 C.3     
  14 C14            6.2979     7.1532    -1.4659 C.3     
  15 O15           -1.1660    -0.6981     0.0099 O.3     
  16 C16           -1.0735    -2.1240     0.0013 C.3     
  17 F17           -0.3966    -2.5405    -1.1500 F       
  18 F18           -0.3739    -2.5528     1.1344 F       
  19 C19            7.2351     2.6198    -0.0393 C.3     
  20 C20            7.7287     2.5904    -1.4629 C.2     
  21 O21            6.9371     2.6414    -2.3803 O.2     
  22 N22            9.0498     2.5075    -1.7165 N.am    
  23 C23            9.5527     2.4775    -3.0983 C.3     
  24 C24           10.6443     3.5432    -3.2423 C.3     
  25 N25           11.6644     3.3379    -2.2053 N.3     
  26 C26           11.0997     3.5116    -0.8604 C.3     
  27 C27           10.0271     2.4507    -0.6189 C.3     
  28 C28           12.7483     4.1793    -2.4014 C.ar    
  29 C29           13.8335     4.1490    -1.5288 C.ar    
  30 N30           12.7702     5.0244    -3.4296 N.ar    
  31 C31           14.8952     5.0116    -1.7688 C.ar    
  32 N32           14.8389     5.8303    -2.8158 N.ar    
  33 C33           13.7973     5.8268    -3.6225 C.ar    
  34 O34           15.9734     5.0194    -0.9474 O.3     
  35 C35           17.0230     5.9362    -1.2633 C.3     
  36 H36           -0.9596     1.9108     0.0170 H       
  37 H37            1.2237    -1.7644    -0.0191 H       
  38 H38            3.3403    -0.5126    -0.0314 H       
  39 H39            1.1520     3.1710     0.0077 H       
  40 H40            4.8820     5.9018     0.4987 H       
  41 H41            6.5435     5.2636     0.4833 H       
  42 H42            6.4455     5.0681    -1.9867 H       
  43 H43            4.7840     5.7064    -1.9712 H       
  44 H44            5.6017     7.8101    -0.9445 H       
  45 H45            7.2632     7.1718    -0.9599 H       
  46 H46            6.4198     7.4952    -2.4936 H       
  47 H47           -2.0754    -2.5532     0.0089 H       
  48 H48            7.6565     3.4844     0.4736 H       
  49 H49            7.5446     1.7079     0.4714 H       
  50 H50            9.9702     1.4941    -3.3147 H       
  51 H51            8.7377     2.6925    -3.7894 H       
  52 H52           11.1049     3.4615    -4.2268 H       
  53 H53           10.2033     4.5334    -3.1276 H       
  54 H54           11.8904     3.4070    -0.1176 H       
  55 H55           10.6523     4.5023    -0.7790 H       
  56 H56            9.5265     2.6455     0.3296 H       
  57 H57           10.4874     1.4630    -0.5971 H       
  58 H58           13.8488     3.4725    -0.6871 H       
  59 H59           13.7831     6.5041    -4.4636 H       
  60 H60           17.8227     5.8401    -0.5290 H       
  61 H61           17.4130     5.7138    -2.2566 H       
  62 H62           16.6338     6.9542    -1.2455 H       
@<TRIPOS>BOND
   1    1    2 ar
   2    1    6 ar
   3    1   36 1
   4    2    3 ar
   5    2   15 1
   6    3    4 ar
   7    3   37 1
   8    4    5 ar
   9    4   38 1
  10    5    6 ar
  11    5    7 1
  12    6   39 1
  13    7    8 1
  14    7    9 2
  15    8   11 2
  16    9   10 1
  17   10   11 1
  18   10   19 1
  19   11   12 1
  20   12   13 1
  21   12   40 1
  22   12   41 1
  23   13   14 1
  24   13   42 1
  25   13   43 1
  26   14   44 1
  27   14   45 1
  28   14   46 1
  29   15   16 1
  30   16   17 1
  31   16   18 1
  32   16   47 1
  33   19   20 1
  34   19   48 1
  35   19   49 1
  36   20   21 2
  37   20   22 am
  38   22   23 1
  39   22   27 1
  40   23   24 1
  41   23   50 1
  42   23   51 1
  43   24   25 1
  44   24   52 1
  45   24   53 1
  46   25   26 1
  47   25   28 1
  48   26   27 1
  49   26   54 1
  50   26   55 1
  51   27   56 1
  52   27   57 1
  53   28   29 ar
  54   28   30 ar
  55   29   31 ar
  56   29   58 1
  57   30   33 ar
  58   31   32 ar
  59   31   34 1
  60   32   33 ar
  61   33   59 1
  62   34   35 1
  63   35   60 1
  64   35   61 1
  65   35   62 1

#	End of record

