#	Name: ASD01310038
#	Creating user name:	WinNT
#	Creation time:	15. 06. 2019 19:15

#	Modifying user name:	WinNT
#	Modification time:	15. 06. 2019 19:15

#	Program:	/corina/corina34_cracker 3.40 0067  02.08.2006

@<TRIPOS>MOLECULE
ASD01310038
  45   50    0    0    0
SMALL
NO_CHARGES


@<TRIPOS>ATOM
   1 C1            -0.0183     1.4985     0.0103 C.3     
   2 C2             0.0021    -0.0041     0.0020 C.ar    
   3 C3            -0.8870    -0.7586    -0.7517 C.ar    
   4 C4            -1.7140     1.2464    -1.8169 C.2     
   5 C5             0.9414    -0.6602     0.7837 C.ar    
   6 C6             0.9795    -2.0398     0.8228 C.ar    
   7 C7             0.0789    -2.7852     0.0846 C.ar    
   8 C8            -0.8566    -2.1427    -0.7041 C.ar    
   9 N9             1.7685     2.3686    -1.3873 N.am    
  10 C10            1.4422     2.0041    -0.0009 C.3     
  11 C11           -0.6076     2.1032    -1.2764 C.3     
  12 C12            0.5994     2.0832    -2.2396 C.3     
  13 N13           -1.8096    -0.0932    -1.5653 N.pl3   
  14 C14           -2.9050    -0.5581    -2.2206 C.2     
  15 C15           -3.4616     0.5035    -2.8415 C.2     
  16 N16           -2.7155     1.5880    -2.5719 N.2     
  17 S17            3.2105     2.9960    -1.9061 S.o2    
  18 O18            2.9337     3.6934    -3.1129 O.2     
  19 O19            3.8115     3.6098    -0.7741 O.2     
  20 C20            4.2438     1.6371    -2.3425 C.ar    
  21 C21            5.0649     1.0615    -1.3907 C.ar    
  22 C22            4.2275     1.1453    -3.6343 C.ar    
  23 C23            5.8702    -0.4995    -3.0223 C.ar    
  24 C24            5.8772    -0.0049    -1.7282 C.ar    
  25 C25            5.0387     0.0765    -3.9795 C.ar    
  26 O26            5.2083    -0.5865    -5.1606 O.3     
  27 C27            6.4471    -1.3072    -5.0224 C.3     
  28 O28            6.5602    -1.5240    -3.6034 O.3     
  29 H29           -0.5423     1.8663     0.8925 H       
  30 H30           -0.9577     3.1205    -1.1014 H       
  31 H31            1.6484    -0.0878     1.3657 H       
  32 H32            1.7171    -2.5395     1.4331 H       
  33 H33            0.1060    -3.8641     0.1244 H       
  34 H34           -1.5628    -2.7191    -1.2832 H       
  35 H35            1.5369     2.8777     0.6440 H       
  36 H36            2.1105     1.2141     0.3416 H       
  37 H37            0.4889     2.8540    -3.0022 H       
  38 H38            0.6986     1.1015    -2.7029 H       
  39 H39           -3.2607    -1.5777    -2.2411 H       
  40 H40           -4.3532     0.4844    -3.4506 H       
  41 H41            5.0719     1.4460    -0.3815 H       
  42 H42            3.5818     1.5941    -4.3746 H       
  43 H43            6.5179    -0.4525    -0.9827 H       
  44 H44            6.3981    -2.2584    -5.5524 H       
  45 H45            7.2817    -0.7077    -5.3860 H       
@<TRIPOS>BOND
   1    1    2 1
   2    1   10 1
   3    1   11 1
   4    1   29 1
   5    2    3 ar
   6    2    5 ar
   7    3   13 1
   8    3    8 ar
   9    4   11 1
  10    4   16 2
  11    4   13 1
  12    5    6 ar
  13    5   31 1
  14    6    7 ar
  15    6   32 1
  16    7    8 ar
  17    7   33 1
  18    8   34 1
  19    9   10 1
  20    9   12 1
  21    9   17 am
  22   10   35 1
  23   10   36 1
  24   11   12 1
  25   11   30 1
  26   12   37 1
  27   12   38 1
  28   13   14 1
  29   14   15 2
  30   14   39 1
  31   15   16 1
  32   15   40 1
  33   17   18 2
  34   17   19 2
  35   17   20 1
  36   20   22 ar
  37   20   21 ar
  38   21   24 ar
  39   21   41 1
  40   22   25 ar
  41   22   42 1
  42   23   24 ar
  43   23   28 1
  44   23   25 ar
  45   24   43 1
  46   25   26 1
  47   26   27 1
  48   27   28 1
  49   27   44 1
  50   27   45 1

#	End of record

