#	Name: ASD04530014
#	Creating user name:	WinNT
#	Creation time:	15. 06. 2019 20:49

#	Modifying user name:	WinNT
#	Modification time:	15. 06. 2019 20:49

#	Program:	/corina/corina34_cracker 3.40 0067  02.08.2006

@<TRIPOS>MOLECULE
ASD04530014
  23   24    0    0    0
SMALL
NO_CHARGES


@<TRIPOS>ATOM
   1 C1            -0.0213     1.3574    -0.1396 C.ar    
   2 C2             0.0084     0.0228     0.2221 C.ar    
   3 C3             1.2174    -0.6364     0.3562 C.ar    
   4 C4             2.4013     0.0352     0.1295 C.ar    
   5 C5             2.3775     1.3806    -0.2354 C.ar    
   6 C6             1.1566     2.0394    -0.3689 C.ar    
   7 C7             3.6465     2.1080    -0.4799 C.2     
   8 C8             3.8934     3.3201     0.0454 C.2     
   9 S9             5.4950     3.8346    -0.4785 S.3     
  10 C10            5.6866     2.3328    -1.3776 C.2     
  11 N11            4.6242     1.6033    -1.2313 N.2     
  12 N12            6.8017     1.9823    -2.1215 N.pl3   
  13 C13            3.7174    -0.6840     0.2764 C.3     
  14 H14           -0.9681     1.8657    -0.2472 H       
  15 H15           -0.9157    -0.5068     0.4009 H       
  16 H16            1.2347    -1.6785     0.6392 H       
  17 H17            1.1322     3.0815    -0.6516 H       
  18 H18            3.2245     3.8826     0.6800 H       
  19 H19            7.5584     2.5867    -2.1752 H       
  20 H20            6.8256     1.1325    -2.5885 H       
  21 H21            4.0461    -1.0430    -0.6988 H       
  22 H22            4.4624     0.0008     0.6816 H       
  23 H23            3.5956    -1.5300     0.9529 H       
@<TRIPOS>BOND
   1    1    2 ar
   2    1    6 ar
   3    1   14 1
   4    2    3 ar
   5    2   15 1
   6    3    4 ar
   7    3   16 1
   8    4    5 ar
   9    4   13 1
  10    5    6 ar
  11    5    7 1
  12    6   17 1
  13    7    8 2
  14    7   11 1
  15    8    9 1
  16    8   18 1
  17    9   10 1
  18   10   11 2
  19   10   12 1
  20   12   19 1
  21   12   20 1
  22   13   21 1
  23   13   22 1
  24   13   23 1

#	End of record

