#	Name: ASD01880098
#	Creating user name:	WinNT
#	Creation time:	15. 06. 2019 19:40

#	Modifying user name:	WinNT
#	Modification time:	15. 06. 2019 19:40

#	Program:	/corina/corina34_cracker 3.40 0067  02.08.2006

@<TRIPOS>MOLECULE
ASD01880098
  67   71    0    0    0
SMALL
NO_CHARGES


@<TRIPOS>ATOM
   1 C1             0.1156     1.5736    -0.0253 C.ar    
   2 C2             0.9647     1.5681     1.0626 C.ar    
   3 C3             2.0480     0.7112     1.0964 C.ar    
   4 C4             2.2904    -0.1547     0.0309 C.ar    
   5 C5             1.4392    -0.1558    -1.0692 C.ar    
   6 C6             0.3476     0.7109    -1.0994 C.ar    
   7 C7             3.4552    -1.0735     0.0702 C.ar    
   8 C8             3.6146    -1.9549     1.1371 C.ar    
   9 C9             4.6996    -2.8077     1.1684 C.ar    
  10 C10            5.6277    -2.7879     0.1432 C.ar    
  11 C11            5.4743    -1.9146    -0.9187 C.ar    
  12 C12            4.3902    -1.0617    -0.9629 C.ar    
  13 C13            6.4899    -1.8983    -2.0319 C.3     
  14 O14            6.0989    -2.8249    -3.0471 O.3     
  15 C15            6.9114    -2.9333    -4.1281 C.ar    
  16 C16            8.0644    -2.1617    -4.2101 C.ar    
  17 C17            8.8929    -2.2692    -5.3076 C.ar    
  18 C18            8.5720    -3.1559    -6.3379 C.ar    
  19 C19            7.4031    -3.9309    -6.2421 C.ar    
  20 C20            6.5928    -3.8208    -5.1504 C.ar    
  21 C21           10.1827    -1.5567    -5.6369 C.3     
  22 C22           10.6380    -2.0996    -6.9985 C.3     
  23 C23            9.5872    -3.1065    -7.3988 C.2     
  24 C24           10.7052    -0.9671    -8.0250 C.3     
  25 C25           11.7046     0.1067    -7.5605 C.3     
  26 C26           12.8028     0.1837    -8.6412 C.3     
  27 C27           12.1164    -0.3584    -9.9195 C.3     
  28 C28           11.2310    -1.5052    -9.3718 C.3     
  29 O29            9.5818    -3.7613    -8.4199 O.2     
  30 C30            5.3421    -4.6562    -5.0566 C.3     
  31 C31            7.0463    -4.8907    -7.3478 C.3     
  32 C32            2.9704     0.7128     2.2882 C.3     
  33 C33           -0.5620     0.7161    -2.2636 C.2     
  34 O34           -0.3592    -0.0353    -3.1962 O.2     
  35 O35           -1.6163     1.5543    -2.2909 O.3     
  36 H36           -0.7320     2.2427    -0.0445 H       
  37 H37            0.7818     2.2367     1.8908 H       
  38 H38            1.6236    -0.8247    -1.8968 H       
  39 H39            2.8908    -1.9708     1.9386 H       
  40 H40            4.8242    -3.4915     1.9950 H       
  41 H41            6.4755    -3.4563     0.1720 H       
  42 H42            4.2714    -0.3804    -1.7924 H       
  43 H43            6.5470    -0.8963    -2.4571 H       
  44 H44            7.4658    -2.1818    -1.6376 H       
  45 H45            8.3119    -1.4762    -3.4131 H       
  46 H46           10.0113    -0.4821    -5.7004 H       
  47 H47           10.9341    -1.7724    -4.8774 H       
  48 H48           11.6098    -2.5845    -6.9058 H       
  49 H49            9.7177    -0.5254    -8.1585 H       
  50 H50           11.2023     1.0698    -7.4693 H       
  51 H51           12.1417    -0.1789    -6.6037 H       
  52 H52           13.1220     1.2155    -8.7879 H       
  53 H53           13.6512    -0.4439    -8.3683 H       
  54 H54           11.5041     0.4132   -10.3860 H       
  55 H55           12.8561    -0.7431   -10.6216 H       
  56 H56           11.8255    -2.4056    -9.2170 H       
  57 H57           10.4030    -1.7059   -10.0518 H       
  58 H58            5.5723    -5.6010    -4.5643 H       
  59 H59            4.5892    -4.1196    -4.4791 H       
  60 H60            4.9600    -4.8521    -6.0585 H       
  61 H61            7.4910    -5.8642    -7.1414 H       
  62 H62            5.9625    -4.9913    -7.4059 H       
  63 H63            7.4273    -4.5108    -8.2957 H       
  64 H64            2.6691    -0.0720     2.9819 H       
  65 H65            3.9928     0.5318     1.9565 H       
  66 H66            2.9165     1.6800     2.7880 H       
  67 H67           -2.1830     1.5214    -3.0737 H       
@<TRIPOS>BOND
   1    1    2 ar
   2    1    6 ar
   3    1   36 1
   4    2    3 ar
   5    2   37 1
   6    3    4 ar
   7    3   32 1
   8    4    5 ar
   9    4    7 1
  10    5    6 ar
  11    5   38 1
  12    6   33 1
  13    7    8 ar
  14    7   12 ar
  15    8    9 ar
  16    8   39 1
  17    9   10 ar
  18    9   40 1
  19   10   11 ar
  20   10   41 1
  21   11   12 ar
  22   11   13 1
  23   12   42 1
  24   13   14 1
  25   13   43 1
  26   13   44 1
  27   14   15 1
  28   15   16 ar
  29   15   20 ar
  30   16   17 ar
  31   16   45 1
  32   17   18 ar
  33   17   21 1
  34   18   19 ar
  35   18   23 1
  36   19   20 ar
  37   19   31 1
  38   20   30 1
  39   21   22 1
  40   21   46 1
  41   21   47 1
  42   22   23 1
  43   22   24 1
  44   22   48 1
  45   23   29 2
  46   24   25 1
  47   24   28 1
  48   24   49 1
  49   25   26 1
  50   25   50 1
  51   25   51 1
  52   26   27 1
  53   26   52 1
  54   26   53 1
  55   27   28 1
  56   27   54 1
  57   27   55 1
  58   28   56 1
  59   28   57 1
  60   30   58 1
  61   30   59 1
  62   30   60 1
  63   31   61 1
  64   31   62 1
  65   31   63 1
  66   32   64 1
  67   32   65 1
  68   32   66 1
  69   33   34 2
  70   33   35 1
  71   35   67 1

#	End of record

