#	Name: ASD03731703
#	Creating user name:	WinNT
#	Creation time:	15. 06. 2019 20:46

#	Modifying user name:	WinNT
#	Modification time:	15. 06. 2019 20:46

#	Program:	/corina/corina34_cracker 3.40 0067  02.08.2006

@<TRIPOS>MOLECULE
ASD03731703
  36   37    0    0    0
SMALL
NO_CHARGES


@<TRIPOS>ATOM
   1 C1             0.7581     1.4154    -0.4019 C.2     
   2 C2             0.5737    -0.0456    -0.3015 C.ar    
   3 C3             1.5327    -0.9110    -0.8345 C.ar    
   4 C4             1.3574    -2.2733    -0.7384 C.ar    
   5 C5             0.2278    -2.7882    -0.1126 C.ar    
   6 C6            -0.7286    -1.9305     0.4189 C.ar    
   7 C7            -0.5576    -0.5670     0.3319 C.ar    
   8 O8             1.7454     1.8674    -0.9489 O.2     
   9 N9            -0.1707     2.2485     0.1078 N.am    
  10 O10            0.0581    -4.1313    -0.0206 O.3     
  11 C11            0.5843    -4.7685     1.0581 C.ar    
  12 C12            1.1759    -4.0361     2.0777 C.ar    
  13 C13            1.7101    -4.6862     3.1730 C.ar    
  14 C14            1.6562    -6.0657     3.2540 C.ar    
  15 C15            1.0677    -6.7977     2.2394 C.ar    
  16 C16            0.5260    -6.1519     1.1448 C.ar    
  17 C17            2.3527    -3.8916     4.2805 C.3     
  18 F18            1.3882    -3.5636     5.2393 F       
  19 F19            3.3623    -4.6547     4.8767 F       
  20 F20            2.9042    -2.7188     3.7536 F       
  21 S21            0.0362     3.8876    -0.0049 S.o2    
  22 O22           -1.1026     4.4303     0.6493 O.2     
  23 O23            1.3460     4.1109     0.4987 O.2     
  24 C24           -0.0285     4.2307    -1.7849 C.3     
  25 H25            2.4102    -0.5118    -1.3215 H       
  26 H26            2.0981    -2.9428    -1.1501 H       
  27 H27           -1.6050    -2.3342     0.9041 H       
  28 H28           -1.2989     0.0987     0.7487 H       
  29 H29           -0.9603     1.8879     0.5407 H       
  30 H30            1.2190    -2.9588     2.0146 H       
  31 H31            2.0748    -6.5721     4.1111 H       
  32 H32            1.0272    -7.8749     2.3050 H       
  33 H33            0.0619    -6.7238     0.3549 H       
  34 H34           -0.9934     3.9141    -2.1812 H       
  35 H35            0.1005     5.2998    -1.9538 H       
  36 H36            0.7684     3.6844    -2.2895 H       
@<TRIPOS>BOND
   1    1    2 1
   2    1    8 2
   3    1    9 am
   4    2    3 ar
   5    2    7 ar
   6    3    4 ar
   7    3   25 1
   8    4    5 ar
   9    4   26 1
  10    5    6 ar
  11    5   10 1
  12    6    7 ar
  13    6   27 1
  14    7   28 1
  15    9   21 am
  16    9   29 1
  17   10   11 1
  18   11   12 ar
  19   11   16 ar
  20   12   13 ar
  21   12   30 1
  22   13   14 ar
  23   13   17 1
  24   14   15 ar
  25   14   31 1
  26   15   16 ar
  27   15   32 1
  28   16   33 1
  29   17   18 1
  30   17   19 1
  31   17   20 1
  32   21   22 2
  33   21   23 2
  34   21   24 1
  35   24   34 1
  36   24   35 1
  37   24   36 1

#	End of record

