#	Name: ASD03091198
#	Creating user name:	WinNT
#	Creation time:	15. 06. 2019 20:30

#	Modifying user name:	WinNT
#	Modification time:	15. 06. 2019 20:30

#	Program:	/corina/corina34_cracker 3.40 0067  02.08.2006

@<TRIPOS>MOLECULE
ASD03091198
  66   69    0    0    0
SMALL
NO_CHARGES


@<TRIPOS>ATOM
   1 C1            -0.0948     1.3917    -0.0148 C.2     
   2 C2            -0.0334    -0.1139     0.0030 C.3     
   3 O3             0.9298     2.0402    -0.0385 O.2     
   4 N4            -1.2885     2.0176    -0.0098 N.am    
   5 C5            -1.3482     3.4813    -0.0271 C.3     
   6 C6            -1.2585     3.9784    -1.4713 C.3     
   7 C7            -2.6687     3.9451     0.5909 C.3     
   8 N8             3.2671    -1.1110     1.2288 N.2     
   9 C9             2.0283    -0.7298     1.1600 C.2     
  10 N10            1.3664    -0.5458    -0.0131 N.am    
  11 C11            1.9891    -0.7585    -1.1958 C.2     
  12 C12            3.3939    -1.1914    -1.1528 C.ar    
  13 C13            4.1245    -1.4375    -2.3130 C.ar    
  14 C14            5.4442    -1.8435    -2.2097 C.ar    
  15 C15            6.0370    -2.0047    -0.9575 C.ar    
  16 C16            5.3320    -1.7673     0.1878 C.ar    
  17 C17            3.9993    -1.3563     0.1127 C.ar    
  18 O18            1.4089    -0.5982    -2.2539 O.2     
  19 C19            1.2852    -0.4787     2.4469 C.3     
  20 C20            2.2145    -0.7454     3.6327 C.3     
  21 C21            1.5013    -0.3717     4.9337 C.3     
  22 C22            2.5884    -2.2287     3.6640 C.3     
  23 N23            7.2695    -1.5692    -6.0732 N.3     
  24 C24            6.0740    -2.3910    -5.8303 C.3     
  25 C25            5.3574    -1.9370    -4.5681 C.3     
  26 N26            6.1866    -2.0937    -3.3672 N.3     
  27 C27            7.3667    -1.2204    -3.4350 C.3     
  28 C28            8.5559    -1.9784    -4.0057 C.3     
  29 C29            8.4539    -2.2225    -5.4978 C.3     
  30 C30            7.1684    -0.1704    -5.7160 C.3     
  31 C31            7.0151     0.0316    -4.2175 C.3     
  32 H32           -0.5183    -0.4867     0.9052 H       
  33 H33           -0.5456    -0.5088    -0.8744 H       
  34 H34           -2.1080     1.4989     0.0051 H       
  35 H35           -0.5157     3.8857     0.5487 H       
  36 H36           -0.3177     3.6479    -1.9115 H       
  37 H37           -2.0909     3.5740    -2.0471 H       
  38 H38           -1.3029     5.0674    -1.4841 H       
  39 H39           -2.7326     3.5910     1.6198 H       
  40 H40           -2.7132     5.0342     0.5780 H       
  41 H41           -3.5012     3.5407     0.0151 H       
  42 H42            3.6662    -1.3133    -3.2830 H       
  43 H43            7.0673    -2.3220    -0.8927 H       
  44 H44            5.8045    -1.8971     1.1502 H       
  45 H45            0.9480     0.5574     2.4755 H       
  46 H46            0.4231    -1.1431     2.5042 H       
  47 H47            3.1182    -0.1450     3.5284 H       
  48 H48            0.5976    -0.9721     5.0380 H       
  49 H49            2.1633    -0.5617     5.7785 H       
  50 H50            1.2349     0.6850     4.9114 H       
  51 H51            3.0966    -2.4950     2.7372 H       
  52 H52            3.2505    -2.4187     4.5088 H       
  53 H53            1.6847    -2.8291     3.7684 H       
  54 H54            5.3972    -2.3002    -6.6799 H       
  55 H55            6.3716    -3.4336    -5.7190 H       
  56 H56            5.0855    -0.8869    -4.6749 H       
  57 H57            4.4474    -2.5250    -4.4480 H       
  58 H58            7.6171    -0.9126    -2.4198 H       
  59 H59            9.4627    -1.4074    -3.8063 H       
  60 H60            8.6332    -2.9403    -3.4988 H       
  61 H61            8.3918    -3.2955    -5.6795 H       
  62 H62            9.3475    -1.8316    -5.9843 H       
  63 H63            8.0674     0.3462    -6.0522 H       
  64 H64            6.3046     0.2619    -6.2212 H       
  65 H65            5.9828     0.3066    -4.0008 H       
  66 H66            7.6701     0.8431    -3.9005 H       
@<TRIPOS>BOND
   1    1    2 1
   2    1    3 2
   3    1    4 am
   4    2   10 1
   5    2   32 1
   6    2   33 1
   7    4    5 1
   8    4   34 1
   9    5    6 1
  10    5    7 1
  11    5   35 1
  12    6   36 1
  13    6   37 1
  14    6   38 1
  15    7   39 1
  16    7   40 1
  17    7   41 1
  18    8    9 2
  19    8   17 1
  20    9   10 1
  21    9   19 1
  22   10   11 am
  23   11   12 1
  24   11   18 2
  25   12   13 ar
  26   12   17 ar
  27   13   14 ar
  28   13   42 1
  29   14   15 ar
  30   14   26 1
  31   15   16 ar
  32   15   43 1
  33   16   17 ar
  34   16   44 1
  35   19   20 1
  36   19   45 1
  37   19   46 1
  38   20   21 1
  39   20   22 1
  40   20   47 1
  41   21   48 1
  42   21   49 1
  43   21   50 1
  44   22   51 1
  45   22   52 1
  46   22   53 1
  47   23   24 1
  48   23   29 1
  49   23   30 1
  50   24   25 1
  51   24   54 1
  52   24   55 1
  53   25   26 1
  54   25   56 1
  55   25   57 1
  56   26   27 1
  57   27   28 1
  58   27   31 1
  59   27   58 1
  60   28   29 1
  61   28   59 1
  62   28   60 1
  63   29   61 1
  64   29   62 1
  65   30   31 1
  66   30   63 1
  67   30   64 1
  68   31   65 1
  69   31   66 1

#	End of record

