#	Name: ASD03740132
#	Creating user name:	WinNT
#	Creation time:	15. 06. 2019 20:46

#	Modifying user name:	WinNT
#	Modification time:	15. 06. 2019 20:46

#	Program:	/corina/corina34_cracker 3.40 0067  02.08.2006

@<TRIPOS>MOLECULE
ASD03740132
  31   33    0    0    0
SMALL
NO_CHARGES


@<TRIPOS>ATOM
   1 C1            -0.0168     1.3861     0.0097 C.ar    
   2 C2             0.0021    -0.0041     0.0020 C.ar    
   3 C3            -1.1729    -0.7220     0.0089 C.ar    
   4 C4            -2.3926    -0.0503     0.0242 C.ar    
   5 C5            -2.4073     1.3580     0.0323 C.ar    
   6 C6            -1.2001     2.0651     0.0303 C.ar    
   7 N7            -3.7007    -0.4589     0.0348 N.pl3   
   8 N8            -4.5310     0.6666     0.0495 N.2     
   9 C9            -3.8124     1.7528     0.0486 C.2     
  10 C10            1.2821     2.1502     0.0014 C.3     
  11 Br11           1.6575    -0.9178    -0.0187 Br      
  12 C12           -5.5015    -2.1870     2.1152 C.ar    
  13 C13           -4.2985    -2.3367     1.4510 C.ar    
  14 C14           -3.2258    -2.9321     2.0882 C.ar    
  15 C15           -3.3557    -3.3780     3.3900 C.ar    
  16 C16           -4.5595    -3.2284     4.0553 C.ar    
  17 C17           -5.6326    -2.6325     3.4170 C.ar    
  18 C18           -4.1563    -1.8512     0.0314 C.3     
  19 Cl19          -4.7236    -3.7887     5.6902 Cl      
  20 H20           -1.1486    -1.8018     0.0022 H       
  21 H21           -1.2049     3.1451     0.0369 H       
  22 H22           -4.1890     2.7650     0.0586 H       
  23 H23            1.5855     2.3399    -1.0282 H       
  24 H24            1.1490     3.0987     0.5216 H       
  25 H25            2.0514     1.5646     0.5047 H       
  26 H26           -6.3378    -1.7178     1.6184 H       
  27 H27           -2.2863    -3.0491     1.5686 H       
  28 H28           -2.5178    -3.8434     3.8876 H       
  29 H29           -6.5725    -2.5151     3.9360 H       
  30 H30           -5.1202    -1.9168    -0.4733 H       
  31 H31           -3.4286    -2.4703    -0.4932 H       
@<TRIPOS>BOND
   1    1    2 ar
   2    1   10 1
   3    1    6 ar
   4    2    3 ar
   5    2   11 1
   6    3    4 ar
   7    3   20 1
   8    4    5 ar
   9    4    7 1
  10    5    6 ar
  11    5    9 1
  12    6   21 1
  13    7    8 1
  14    7   18 1
  15    8    9 2
  16    9   22 1
  17   10   23 1
  18   10   24 1
  19   10   25 1
  20   12   13 ar
  21   12   17 ar
  22   12   26 1
  23   13   14 ar
  24   13   18 1
  25   14   15 ar
  26   14   27 1
  27   15   16 ar
  28   15   28 1
  29   16   17 ar
  30   16   19 1
  31   17   29 1
  32   18   30 1
  33   18   31 1

#	End of record

