#	Name: ASD09120002
#	Creating user name:	WinNT
#	Creation time:	15. 06. 2019 21:21

#	Modifying user name:	WinNT
#	Modification time:	15. 06. 2019 21:21

#	Program:	/corina/corina34_cracker 3.40 0067  02.08.2006

@<TRIPOS>MOLECULE
ASD09120002
  51   54    0    0    0
SMALL
NO_CHARGES


@<TRIPOS>ATOM
   1 C1            -0.0167     1.3831     0.0096 C.ar    
   2 C2             0.0021    -0.0041     0.0020 C.ar    
   3 C3             1.2141    -0.6789    -0.0132 C.ar    
   4 C4             2.3989     0.0314    -0.0207 C.ar    
   5 C5             2.3774     1.4139    -0.0126 C.ar    
   6 C6             1.1708     2.0889     0.0021 C.ar    
   7 O7            -1.1648    -0.7006     0.0099 O.3     
   8 C8             3.6714     2.1863    -0.0198 C.3     
   9 C9             4.0963     2.4560    -1.4647 C.3     
  10 C10            5.3224     3.3321    -1.4725 C.2     
  11 O11            5.2792     4.5520    -0.9141 O.3     
  12 O12            6.3444     2.9365    -1.9813 O.2     
  13 N13            4.3992     1.1862    -2.1296 N.am    
  14 C14            4.3028     1.0879    -3.4703 C.2     
  15 O15            4.5812    -0.0791    -4.0815 O.3     
  16 O16            3.9646     2.0524    -4.1275 O.2     
  17 C17            4.4561    -0.1120    -5.5277 C.3     
  18 C18            4.8102    -1.5101    -6.0385 C.3     
  19 C19            4.5678    -1.5969    -7.5254 C.ar    
  20 C20            5.7860    -1.8886    -8.1325 C.ar    
  21 C21            6.8410    -2.0005    -7.0949 C.ar    
  22 C22            6.2818    -1.7786    -5.8396 C.ar    
  23 C23            8.2060    -2.2754    -7.1972 C.ar    
  24 C24            8.9858    -2.3249    -6.0607 C.ar    
  25 C25            8.4210    -2.1029    -4.8176 C.ar    
  26 C26            7.0689    -1.8307    -4.7085 C.ar    
  27 C27            3.4294    -1.4440    -8.2884 C.ar    
  28 C28            3.4939    -1.5804    -9.6637 C.ar    
  29 C29            4.7000    -1.8699   -10.2762 C.ar    
  30 C30            5.8435    -2.0253    -9.5208 C.ar    
  31 H31           -0.9590     1.9108     0.0170 H       
  32 H32            1.2314    -1.7588    -0.0188 H       
  33 H33            3.3426    -0.4935    -0.0325 H       
  34 H34            1.1567     3.1688     0.0084 H       
  35 H35           -1.5113    -0.8975    -0.8712 H       
  36 H36            3.5318     3.1338     0.5007 H       
  37 H37            4.4441     1.6055     0.4838 H       
  38 H38            3.2869     2.9591    -1.9936 H       
  39 H39            6.0905     5.0774    -0.9436 H       
  40 H40            4.6692     0.4163    -1.6050 H       
  41 H41            3.4310     0.1288    -5.8094 H       
  42 H42            5.1350     0.6183    -5.9679 H       
  43 H43            4.2168    -2.2612    -5.5171 H       
  44 H44            8.6509    -2.4496    -8.1658 H       
  45 H45           10.0415    -2.5380    -6.1416 H       
  46 H46            9.0361    -2.1432    -3.9308 H       
  47 H47            6.6298    -1.6577    -3.7371 H       
  48 H48            2.4868    -1.2180    -7.8121 H       
  49 H49            2.6014    -1.4604   -10.2599 H       
  50 H50            4.7463    -1.9756   -11.3500 H       
  51 H51            6.7832    -2.2509   -10.0031 H       
@<TRIPOS>BOND
   1    1    2 ar
   2    1    6 ar
   3    1   31 1
   4    2    3 ar
   5    2    7 1
   6    3    4 ar
   7    3   32 1
   8    4    5 ar
   9    4   33 1
  10    5    6 ar
  11    5    8 1
  12    6   34 1
  13    7   35 1
  14    8    9 1
  15    8   36 1
  16    8   37 1
  17    9   10 1
  18    9   13 1
  19    9   38 1
  20   10   11 1
  21   10   12 2
  22   11   39 1
  23   13   14 am
  24   13   40 1
  25   14   15 1
  26   14   16 2
  27   15   17 1
  28   17   18 1
  29   17   41 1
  30   17   42 1
  31   18   19 1
  32   18   22 1
  33   18   43 1
  34   19   20 ar
  35   19   27 ar
  36   20   21 1
  37   20   30 ar
  38   21   22 ar
  39   21   23 ar
  40   22   26 ar
  41   23   24 ar
  42   23   44 1
  43   24   25 ar
  44   24   45 1
  45   25   26 ar
  46   25   46 1
  47   26   47 1
  48   27   28 ar
  49   27   48 1
  50   28   29 ar
  51   28   49 1
  52   29   30 ar
  53   29   50 1
  54   30   51 1

#	End of record

