#	Name: ASD01001190
#	Creating user name:	WinNT
#	Creation time:	15. 06. 2019 18:55

#	Modifying user name:	WinNT
#	Modification time:	15. 06. 2019 18:55

#	Program:	/corina/corina34_cracker 3.40 0067  02.08.2006

@<TRIPOS>MOLECULE
ASD01001190
  47   50    0    0    0
SMALL
NO_CHARGES


@<TRIPOS>ATOM
   1 C1            -0.0211     1.7055     0.0114 C.2     
   2 C2             1.2027     2.5848     0.0045 C.3     
   3 C3             1.3936     3.1981    -1.3856 C.3     
   4 N4             1.0285     3.6893     0.9590 N.pl3   
   5 C5             1.4551     2.0992    -2.4431 C.3     
   6 C6             2.6764     4.0259    -1.3971 C.3     
   7 C7             1.8653     4.8067     0.8630 C.ar    
   8 C8             2.7161     1.2555    -2.2336 C.3     
   9 C9             2.6666     5.0061    -0.2505 C.ar    
  10 O10            3.8118     3.1686    -1.2556 O.3     
  11 C11            1.8856     5.7267     1.9059 C.ar    
  12 C12            3.9386     2.1776    -2.2757 C.3     
  13 C13            3.4793     6.1242    -0.3192 C.ar    
  14 C14            2.7002     6.8388     1.8307 C.ar    
  15 C15            3.4962     7.0375     0.7177 C.ar    
  16 C16            4.3839     8.2525     0.6353 C.3     
  17 C17            3.9946     9.0866    -0.5869 C.3     
  18 C18            4.2153     9.0942     1.9018 C.3     
  19 C19            5.8430     7.8103     0.5072 C.3     
  20 S20            0.0021    -0.0041     0.0020 S.3     
  21 C21           -1.7595    -0.0368     0.0193 C.2     
  22 C22           -2.1942     1.2269     0.0304 C.2     
  23 N23           -1.2381     2.1338     0.0310 N.2     
  24 H24            2.0810     1.9978     0.2733 H       
  25 H25            0.5551     3.8594    -1.6040 H       
  26 H26            0.3438     3.6442     1.6446 H       
  27 H27            0.5743     1.4629    -2.3571 H       
  28 H28            1.4810     2.5507    -3.4348 H       
  29 H29            2.7489     4.5698    -2.3389 H       
  30 H30            2.6664     0.7585    -1.2649 H       
  31 H31            2.7929     0.5104    -3.0255 H       
  32 H32            1.2635     5.5711     2.7749 H       
  33 H33            4.8424     1.5926    -2.1051 H       
  34 H34            3.9958     2.6628    -3.2501 H       
  35 H35            4.1030     6.2833    -1.1864 H       
  36 H36            2.7154     7.5533     2.6404 H       
  37 H37            2.9551     9.4016    -0.4957 H       
  38 H38            4.6367     9.9654    -0.6465 H       
  39 H39            4.1147     8.4870    -1.4892 H       
  40 H40            4.4927     8.5000     2.7725 H       
  41 H41            4.8574     9.9730     1.8422 H       
  42 H42            3.1758     9.4092     1.9930 H       
  43 H43            5.9630     7.2107    -0.3951 H       
  44 H44            6.4850     8.6891     0.4476 H       
  45 H45            6.1203     7.2161     1.3779 H       
  46 H46           -2.3786    -0.9217     0.0202 H       
  47 H47           -3.2432     1.4838     0.0423 H       
@<TRIPOS>BOND
   1    1   20 1
   2    1    2 1
   3    1   23 2
   4    2    3 1
   5    2    4 1
   6    2   24 1
   7    3    5 1
   8    3    6 1
   9    3   25 1
  10    4    7 1
  11    4   26 1
  12    5    8 1
  13    5   27 1
  14    5   28 1
  15    6    9 1
  16    6   10 1
  17    6   29 1
  18    7    9 ar
  19    7   11 ar
  20    8   12 1
  21    8   30 1
  22    8   31 1
  23    9   13 ar
  24   10   12 1
  25   11   14 ar
  26   11   32 1
  27   12   33 1
  28   12   34 1
  29   13   15 ar
  30   13   35 1
  31   14   15 ar
  32   14   36 1
  33   15   16 1
  34   16   17 1
  35   16   18 1
  36   16   19 1
  37   17   37 1
  38   17   38 1
  39   17   39 1
  40   18   40 1
  41   18   41 1
  42   18   42 1
  43   19   43 1
  44   19   44 1
  45   19   45 1
  46   20   21 1
  47   21   22 2
  48   21   46 1
  49   22   23 1
  50   22   47 1

#	End of record

