#	Name: ASD03090153
#	Creating user name:	WinNT
#	Creation time:	15. 06. 2019 20:28

#	Modifying user name:	WinNT
#	Modification time:	15. 06. 2019 20:28

#	Program:	/corina/corina34_cracker 3.40 0067  02.08.2006

@<TRIPOS>MOLECULE
ASD03090153
  44   46    0    0    0
SMALL
NO_CHARGES


@<TRIPOS>ATOM
   1 N1             0.3672     1.5979    -0.4235 N.ar    
   2 C2             0.3084     0.2878    -0.2812 C.ar    
   3 C3             1.4594    -0.4714    -0.2266 C.ar    
   4 C4             2.6995     0.1688    -0.3248 C.ar    
   5 C5             2.7144     1.5597    -0.4749 C.ar    
   6 C6             1.5151     2.2406    -0.5198 C.ar    
   7 C7             3.9607    -0.6039    -0.2710 C.2     
   8 N8             5.8599    -3.5548    -0.4631 N.pl3   
   9 C9             4.9766    -4.6312    -0.6298 C.ar    
  10 C10            3.6123    -4.4409    -0.4692 C.ar    
  11 C11            2.7413    -5.5028    -0.6337 C.ar    
  12 C12            3.2306    -6.7596    -0.9595 C.ar    
  13 C13            4.5944    -6.9539    -1.1213 C.ar    
  14 C14            5.4683    -5.8916    -0.9625 C.ar    
  15 N15            4.0819    -1.9034    -0.4534 N.2     
  16 C16            5.3621    -2.2573    -0.3328 C.2     
  17 N17            6.0791    -1.1881    -0.0712 N.2     
  18 N18            5.1920    -0.1003    -0.0317 N.pl3   
  19 C19            5.5322     1.3010     0.2271 C.3     
  20 C20            5.8476     2.0020    -1.0957 C.3     
  21 O21            6.1794     3.3688    -0.8432 O.3     
  22 O22            6.8058    -6.0805    -1.1214 O.3     
  23 Cl23           1.0339    -5.2628    -0.4317 Cl      
  24 C24            7.2397    -7.4013    -1.4520 C.3     
  25 O25            2.3721    -7.8023    -1.1197 O.3     
  26 C26            2.9442    -9.0682    -1.4547 C.3     
  27 H27           -0.6536    -0.1972    -0.2059 H       
  28 H28            1.4038    -1.5436    -0.1096 H       
  29 H29            3.6505     2.0925    -0.5539 H       
  30 H30            1.5163     3.3144    -0.6354 H       
  31 H31            6.8167    -3.7119    -0.4384 H       
  32 H32            3.2299    -3.4633    -0.2153 H       
  33 H33            4.9743    -7.9325    -1.3749 H       
  34 H34            4.6893     1.7964     0.7090 H       
  35 H35            6.4034     1.3486     0.8804 H       
  36 H36            6.6905     1.5065    -1.5775 H       
  37 H37            4.9763     1.9543    -1.7490 H       
  38 H38            6.3914     3.8755    -1.6391 H       
  39 H39            6.9382    -8.0908    -0.6634 H       
  40 H40            6.7866    -7.7073    -2.3950 H       
  41 H41            8.3252    -7.4134    -1.5496 H       
  42 H42            3.6338    -9.3748    -0.6682 H       
  43 H43            2.1520    -9.8104    -1.5531 H       
  44 H44            3.4833    -8.9849    -2.3984 H       
@<TRIPOS>BOND
   1    1    2 ar
   2    1    6 ar
   3    2    3 ar
   4    2   27 1
   5    3    4 ar
   6    3   28 1
   7    4    5 ar
   8    4    7 1
   9    5    6 ar
  10    5   29 1
  11    6   30 1
  12    7   15 2
  13    7   18 1
  14    8    9 1
  15    8   16 1
  16    8   31 1
  17    9   10 ar
  18    9   14 ar
  19   10   11 ar
  20   10   32 1
  21   11   12 ar
  22   11   23 1
  23   12   13 ar
  24   12   25 1
  25   13   14 ar
  26   13   33 1
  27   14   22 1
  28   15   16 1
  29   16   17 2
  30   17   18 1
  31   18   19 1
  32   19   20 1
  33   19   34 1
  34   19   35 1
  35   20   21 1
  36   20   36 1
  37   20   37 1
  38   21   38 1
  39   22   24 1
  40   24   39 1
  41   24   40 1
  42   24   41 1
  43   25   26 1
  44   26   42 1
  45   26   43 1
  46   26   44 1

#	End of record

