#	Name: ASD01811328
#	Creating user name:	WinNT
#	Creation time:	15. 06. 2019 19:26

#	Modifying user name:	WinNT
#	Modification time:	15. 06. 2019 19:26

#	Program:	/corina/corina34_cracker 3.40 0067  02.08.2006

@<TRIPOS>MOLECULE
ASD01811328
  64   68    0    0    0
SMALL
NO_CHARGES


@<TRIPOS>ATOM
   1 C1             0.2556     1.3094    -1.8620 C.ar    
   2 N2             0.4608     0.1112    -2.3933 N.ar    
   3 C3             1.6035    -0.5236    -2.2124 C.ar    
   4 C4             2.6060     0.0865    -1.4469 C.ar    
   5 C5             2.3484     1.3522    -0.9039 C.ar    
   6 N6             1.1792     1.9202    -1.1313 N.ar    
   7 C7             3.8988    -0.5864    -1.2181 C.2     
   8 O8             4.1054    -1.6851    -1.6965 O.2     
   9 N9             4.8509     0.0166    -0.4789 N.am    
  10 C10            6.0339    -0.6640    -0.1723 C.ar    
  11 C11            7.2279     0.0376    -0.0511 C.ar    
  12 C12            8.3995    -0.6303     0.2512 C.ar    
  13 C13            8.3920    -1.9982     0.4348 C.ar    
  14 C14            7.1983    -2.7118     0.3157 C.ar    
  15 C15            6.0147    -2.0371     0.0163 C.ar    
  16 C16            7.2448     1.5312    -0.2504 C.3     
  17 C17            7.1875    -4.1773     0.5119 C.2     
  18 O18            6.3289    -4.6918     1.2015 O.2     
  19 N19            8.1296    -4.9426    -0.0740 N.am    
  20 C20            8.0764    -6.4071     0.0315 C.3     
  21 C21            8.1322    -7.0053    -1.3777 C.3     
  22 C22            9.3685    -6.4720    -2.1053 C.3     
  23 C23            9.2719    -4.9497    -2.2302 C.3     
  24 C24            9.2259    -4.3285    -0.8354 C.3     
  25 F25           10.5170    -6.8082    -1.3807 F       
  26 C26            9.4452    -7.0846    -3.4800 C.ar    
  27 C27           10.6210    -7.0044    -4.2051 C.ar    
  28 C28           10.6982    -7.5630    -5.4640 C.ar    
  29 C29            9.5864    -8.2109    -6.0061 C.ar    
  30 C30            8.4032    -8.2886    -5.2687 C.ar    
  31 C31            8.3414    -7.7297    -4.0090 C.ar    
  32 C32            9.6591    -8.7927    -7.3126 C.1     
  33 N33            9.7169    -9.2542    -8.3490 N.1     
  34 N34           -0.9512     1.9408    -2.0804 N.3     
  35 C35           -0.9884     3.2552    -1.4123 C.3     
  36 C36           -1.6780     3.8108    -2.6663 C.3     
  37 C37           -0.9466     2.6584    -3.3688 C.3     
  38 H38            1.7635    -1.4990    -2.6477 H       
  39 H39            3.0954     1.8553    -0.3078 H       
  40 H40            4.7157     0.9224    -0.1594 H       
  41 H41            9.3241    -0.0799     0.3438 H       
  42 H42            9.3098    -2.5165     0.6702 H       
  43 H43            5.0874    -2.5833    -0.0731 H       
  44 H44            7.0674     2.0272     0.7038 H       
  45 H45            8.2156     1.8344    -0.6425 H       
  46 H46            6.4638     1.8124    -0.9568 H       
  47 H47            8.9268    -6.7627     0.6133 H       
  48 H48            7.1478    -6.7049     0.5183 H       
  49 H49            8.1905    -8.0916    -1.3098 H       
  50 H50            7.2354    -6.7223    -1.9289 H       
  51 H51           10.1413    -4.5730    -2.7691 H       
  52 H52            8.3644    -4.6861    -2.7733 H       
  53 H53            9.0554    -3.2553    -0.9203 H       
  54 H54           10.1719    -4.5111    -0.3257 H       
  55 H55           11.4801    -6.5030    -3.7845 H       
  56 H56           11.6163    -7.4991    -6.0291 H       
  57 H57            7.5396    -8.7882    -5.6822 H       
  58 H58            7.4282    -7.7926    -3.4359 H       
  59 H59           -1.6209     3.2734    -0.5248 H       
  60 H60           -0.0005     3.6805    -1.2355 H       
  61 H61           -2.7635     3.7122    -2.6594 H       
  62 H62           -1.3356     4.8026    -2.9615 H       
  63 H63            0.0524     2.9245    -3.7142 H       
  64 H64           -1.5438     2.1708    -4.1395 H       
@<TRIPOS>BOND
   1    1    2 ar
   2    1    6 ar
   3    1   34 1
   4    2    3 ar
   5    3    4 ar
   6    3   38 1
   7    4    5 ar
   8    4    7 1
   9    5    6 ar
  10    5   39 1
  11    7    8 2
  12    7    9 am
  13    9   10 1
  14    9   40 1
  15   10   11 ar
  16   10   15 ar
  17   11   12 ar
  18   11   16 1
  19   12   13 ar
  20   12   41 1
  21   13   14 ar
  22   13   42 1
  23   14   15 ar
  24   14   17 1
  25   15   43 1
  26   16   44 1
  27   16   45 1
  28   16   46 1
  29   17   18 2
  30   17   19 am
  31   19   20 1
  32   19   24 1
  33   20   21 1
  34   20   47 1
  35   20   48 1
  36   21   22 1
  37   21   49 1
  38   21   50 1
  39   22   23 1
  40   22   25 1
  41   22   26 1
  42   23   24 1
  43   23   51 1
  44   23   52 1
  45   24   53 1
  46   24   54 1
  47   26   27 ar
  48   26   31 ar
  49   27   28 ar
  50   27   55 1
  51   28   29 ar
  52   28   56 1
  53   29   30 ar
  54   29   32 1
  55   30   31 ar
  56   30   57 1
  57   31   58 1
  58   32   33 3
  59   34   35 1
  60   34   37 1
  61   35   36 1
  62   35   59 1
  63   35   60 1
  64   36   37 1
  65   36   61 1
  66   36   62 1
  67   37   63 1
  68   37   64 1

#	End of record

