#	Name: ASD00842891
#	Creating user name:	WinNT
#	Creation time:	15. 06. 2019 18:45

#	Modifying user name:	WinNT
#	Modification time:	15. 06. 2019 18:45

#	Program:	/corina/corina34_cracker 3.40 0067  02.08.2006

@<TRIPOS>MOLECULE
ASD00842891
  87   92    0    0    0
SMALL
NO_CHARGES


@<TRIPOS>ATOM
   1 N1            -0.0051     1.3211     0.0356 N.ar    
   2 C2             0.0089    -0.0012     0.0186 C.ar    
   3 C3             1.2117    -0.6961    -0.0014 C.ar    
   4 C4             2.3994     0.0138    -0.0034 C.ar    
   5 C5             2.3418     1.4008     0.0148 C.ar    
   6 C6             1.1109     2.0254     0.0342 C.ar    
   7 C7             1.2227    -2.2030    -0.0203 C.3     
   8 C8             0.4753    -2.7240    -1.2293 C.2     
   9 N9             2.5989    -2.7053    -0.0115 N.am    
  10 C10            3.4472    -2.3639    -1.0016 C.2     
  11 N11            4.7405    -2.7378    -0.9396 N.am    
  12 O12            3.0456    -1.7188    -1.9507 O.2     
  13 C13            5.2673    -3.4167     0.2522 C.3     
  14 C14            6.4979    -2.6530     0.7512 C.3     
  15 C15            7.5066    -2.5163    -0.3916 C.3     
  16 C16            6.8768    -1.7215    -1.5378 C.3     
  17 C17            5.6491    -2.4797    -2.0650 C.3     
  18 N18            8.7022    -1.8134     0.0923 N.3     
  19 C19            9.7422    -1.7677    -0.9449 C.3     
  20 C20           10.9367    -0.9606    -0.4307 C.3     
  21 N21           11.4502    -1.5802     0.7990 N.3     
  22 C22           10.4102    -1.6259     1.8362 C.3     
  23 C23            9.2158    -2.4329     1.3220 C.3     
  24 C24           12.6459    -0.8772     1.2830 C.3     
  25 O25            0.7566    -2.5223    -2.3917 O.2     
  26 N26           -0.5573    -3.4523    -0.7734 N.am    
  27 C27            0.4470    -2.7533     1.1549 C.ar    
  28 C28           -0.6048    -3.4913     0.6173 C.ar    
  29 C29            0.6116    -2.6424     2.5123 C.ar    
  30 C30           -0.2873    -3.2777     3.3767 C.ar    
  31 C31           -1.3470    -4.0212     2.8434 C.ar    
  32 C32           -1.5008    -4.1261     1.4776 C.ar    
  33 F33           -2.2201    -4.6382     3.6693 F       
  34 C34           -1.0266    -5.8345    -2.0693 C.ar    
  35 C35            0.1515    -5.9976    -2.7830 C.ar    
  36 C36           -1.7076    -6.9414    -1.6002 C.ar    
  37 C37           -1.2156    -8.2106    -1.8413 C.ar    
  38 C38           -0.0412    -8.3759    -2.5526 C.ar    
  39 C39            0.6431    -7.2726    -3.0241 C.ar    
  40 H40            0.3411    -9.3684    -2.7397 H       
  41 O41            0.8230    -4.9105    -3.2459 O.3     
  42 C42            2.0289    -5.1539    -3.9729 C.3     
  43 O43           -1.1626    -0.6856     0.0212 O.3     
  44 C44           -2.3649     0.0864     0.0427 C.3     
  45 C45           -3.5735    -0.8518     0.0424 C.3     
  46 F46           -3.5485    -1.6441    -1.1104 F       
  47 F47           -3.5264    -1.6732     1.1739 F       
  48 C48           -0.1241    -3.1685     4.7951 C.1     
  49 N49            0.0053    -3.0819     5.9204 N.1     
  50 S50           -1.6503    -4.2169    -1.7548 S.o2    
  51 O51           -2.8323    -4.3854    -0.9842 O.2     
  52 O52           -1.6242    -3.5282    -2.9974 O.2     
  53 H53            3.3496    -0.4994    -0.0185 H       
  54 H54            3.2503     1.9848     0.0142 H       
  55 H55            1.0606     3.1042     0.0481 H       
  56 H56            2.8995    -3.2835     0.7070 H       
  57 H57            4.5052    -3.4309     1.0314 H       
  58 H58            5.5499    -4.4378    -0.0039 H       
  59 H59            6.1977    -1.6621     1.0919 H       
  60 H60            6.9550    -3.1989     1.5765 H       
  61 H61            7.7876    -3.5072    -0.7483 H       
  62 H62            6.5730    -0.7394    -1.1756 H       
  63 H63            7.6035    -1.6045    -2.3417 H       
  64 H64            5.9656    -3.4231    -2.5099 H       
  65 H65            5.1388    -1.8734    -2.8134 H       
  66 H66           10.0637    -2.7817    -1.1825 H       
  67 H67            9.3416    -1.2935    -1.8409 H       
  68 H68           11.7211    -0.9498    -1.1874 H       
  69 H69           10.6212     0.0610    -0.2188 H       
  70 H70           10.8108    -2.1001     2.7322 H       
  71 H71           10.0888    -0.6118     2.0739 H       
  72 H72            8.4313    -2.4437     2.0787 H       
  73 H73            9.5312    -3.4545     1.1102 H       
  74 H74           12.3957     0.1626     1.4936 H       
  75 H75           13.0052    -1.3562     2.1938 H       
  76 H76           13.4239    -0.9164     0.5206 H       
  77 H77            1.4328    -2.0666     2.9129 H       
  78 H78           -2.3200    -4.7011     1.0716 H       
  79 H79           -2.6250    -6.8150    -1.0444 H       
  80 H80           -1.7490    -9.0745    -1.4732 H       
  81 H81            1.5598    -7.4022    -3.5802 H       
  82 H82            1.8071    -5.7576    -4.8529 H       
  83 H83            2.4635    -4.2039    -4.2841 H       
  84 H84            2.7360    -5.6856    -3.3362 H       
  85 H85           -2.3843     0.7037     0.9408 H       
  86 H86           -2.4015     0.7264    -0.8389 H       
  87 H87           -4.4906    -0.2630     0.0588 H       
@<TRIPOS>BOND
   1    1    2 ar
   2    1    6 ar
   3    2    3 ar
   4    2   43 1
   5    3    4 ar
   6    3    7 1
   7    4    5 ar
   8    4   53 1
   9    5    6 ar
  10    5   54 1
  11    6   55 1
  12    7    8 1
  13    7    9 1
  14    7   27 1
  15    8   25 2
  16    8   26 am
  17    9   10 am
  18    9   56 1
  19   10   11 am
  20   10   12 2
  21   11   13 1
  22   11   17 1
  23   13   14 1
  24   13   57 1
  25   13   58 1
  26   14   15 1
  27   14   59 1
  28   14   60 1
  29   15   16 1
  30   15   18 1
  31   15   61 1
  32   16   17 1
  33   16   62 1
  34   16   63 1
  35   17   64 1
  36   17   65 1
  37   18   19 1
  38   18   23 1
  39   19   20 1
  40   19   66 1
  41   19   67 1
  42   20   21 1
  43   20   68 1
  44   20   69 1
  45   21   22 1
  46   21   24 1
  47   22   23 1
  48   22   70 1
  49   22   71 1
  50   23   72 1
  51   23   73 1
  52   24   74 1
  53   24   75 1
  54   24   76 1
  55   26   50 am
  56   26   28 1
  57   27   28 ar
  58   27   29 ar
  59   28   32 ar
  60   29   30 ar
  61   29   77 1
  62   30   31 ar
  63   30   48 1
  64   31   32 ar
  65   31   33 1
  66   32   78 1
  67   34   35 ar
  68   34   36 ar
  69   34   50 1
  70   35   41 1
  71   35   39 ar
  72   36   37 ar
  73   36   79 1
  74   37   38 ar
  75   37   80 1
  76   38   39 ar
  77   38   40 1
  78   39   81 1
  79   41   42 1
  80   42   82 1
  81   42   83 1
  82   42   84 1
  83   43   44 1
  84   44   45 1
  85   44   85 1
  86   44   86 1
  87   45   46 1
  88   45   47 1
  89   45   87 1
  90   48   49 3
  91   50   51 2
  92   50   52 2

#	End of record

