#	Name: ASD04882418
#	Creating user name:	WinNT
#	Creation time:	15. 06. 2019 20:54

#	Modifying user name:	WinNT
#	Modification time:	15. 06. 2019 20:54

#	Program:	/corina/corina34_cracker 3.40 0067  02.08.2006

@<TRIPOS>MOLECULE
ASD04882418
  79   84    0    0    0
SMALL
NO_CHARGES


@<TRIPOS>ATOM
   1 C1            -0.0215     1.4012    -0.0092 C.ar    
   2 C2            -0.0115     0.0036    -0.0053 C.ar    
   3 C3            -1.2093    -0.7019    -0.0160 C.ar    
   4 C4            -2.4096    -0.0269    -0.0309 C.ar    
   5 C5            -2.4267     1.3707    -0.0349 C.ar    
   6 C6            -1.2239     2.0825    -0.0184 C.ar    
   7 N7             1.1998    -0.6830     0.0089 N.3     
   8 C8             1.3076    -1.5363     1.2005 C.3     
   9 C9             1.3717    -1.4731    -1.2183 C.3     
  10 C10            2.7456    -2.1473    -1.1994 C.3     
  11 N11            2.8534    -3.0005    -0.0078 N.3     
  12 C12            2.6815    -2.2105     1.2194 C.3     
  13 C13           -3.7126     2.0937    -0.0509 C.2     
  14 O14           -3.7265     3.3095    -0.0543 O.2     
  15 N15           -4.8720     1.4064    -0.0616 N.am    
  16 N16            1.1866     2.1110     0.0021 N.am    
  17 C17            1.2296     3.3599     0.5068 C.2     
  18 O18            0.2069     3.8985     0.8853 O.2     
  19 C19            2.5162     4.0732     0.6000 C.2     
  20 C20            2.7107     5.3300     1.0850 C.2     
  21 O21            4.0248     5.5879     0.9878 O.3     
  22 C22            4.6246     4.5140     0.4551 C.2     
  23 N23            3.7337     3.5970     0.2228 N.2     
  24 C24            4.0640    -3.6868     0.0064 C.ar    
  25 C25            5.2770    -2.9980     0.0168 C.ar    
  26 C26            4.0960    -5.0809     0.0163 C.ar    
  27 C27            5.3165    -5.7230     0.0302 C.ar    
  28 N28            6.4429    -5.0352     0.0345 N.ar    
  29 C29            6.4545    -3.7152     0.0307 C.ar    
  30 C30            2.8150    -5.8747     0.0124 C.3     
  31 C31            6.1000     4.3879     0.1751 C.3     
  32 C32            6.7244     5.3965    -0.7911 C.3     
  33 C33            7.0169     5.4908     0.7077 C.3     
  34 C34           -6.1489     2.1243    -0.0775 C.3     
  35 C35           -7.3003     1.1168    -0.0872 C.3     
  36 C36           -8.6339     1.8666    -0.1038 C.3     
  37 N37           -9.7364     0.9019    -0.1131 N.am    
  38 C38          -10.3196     0.4058     0.9917 C.2     
  39 C39          -10.3502     0.3576    -1.3301 C.3     
  40 C40          -11.1264    -0.8978    -0.8742 C.3     
  41 C41          -11.4123    -0.5685     0.6105 C.3     
  42 O42          -10.0138     0.6966     2.1288 O.2     
  43 H43           -1.1986    -1.7819    -0.0129 H       
  44 H44           -3.3385    -0.5778    -0.0399 H       
  45 H45           -1.2340     3.1624    -0.0215 H       
  46 H46            1.1895    -0.9265     2.0963 H       
  47 H47            0.5288    -2.2984     1.1738 H       
  48 H48            0.5937    -2.2345    -1.2725 H       
  49 H49            1.3003    -0.8173    -2.0860 H       
  50 H50            2.8637    -2.7571    -2.0952 H       
  51 H51            3.5244    -1.3851    -1.1727 H       
  52 H52            3.4595    -1.4490     1.2736 H       
  53 H53            2.7529    -2.8663     2.0871 H       
  54 H54           -4.8609     0.4365    -0.0588 H       
  55 H55            1.9919     1.7035    -0.3534 H       
  56 H56            1.9524     5.9935     1.4736 H       
  57 H57            5.2936    -1.9181     0.0137 H       
  58 H58            5.3510    -6.8025     0.0380 H       
  59 H59            7.3984    -3.1903     0.0344 H       
  60 H60            2.5137    -6.0732    -1.0161 H       
  61 H61            2.9712    -6.8190     0.5340 H       
  62 H62            2.0337    -5.3060     0.5166 H       
  63 H63            6.4908     3.3704     0.1625 H       
  64 H64            7.5263     5.0427    -1.4391 H       
  65 H65            6.0681     6.1513    -1.2243 H       
  66 H66            6.5530     6.3076     1.2606 H       
  67 H67            8.0112     5.1990     1.0458 H       
  68 H68           -6.2235     2.7527     0.8101 H       
  69 H69           -6.2041     2.7479    -0.9698 H       
  70 H70           -7.2258     0.4884    -0.9747 H       
  71 H71           -7.2451     0.4933     0.8051 H       
  72 H72           -8.7085     2.4950     0.7837 H       
  73 H73           -8.6892     2.4901    -0.9961 H       
  74 H74          -11.0339     1.0862    -1.7660 H       
  75 H75           -9.5800     0.0837    -2.0510 H       
  76 H76          -12.0555    -1.0066    -1.4338 H       
  77 H77          -10.5103    -1.7922    -0.9663 H       
  78 H78          -11.3495    -1.4699     1.2201 H       
  79 H79          -12.3921    -0.1029     0.7162 H       
@<TRIPOS>BOND
   1    1    2 ar
   2    1   16 1
   3    1    6 ar
   4    2    3 ar
   5    2    7 1
   6    3    4 ar
   7    3   43 1
   8    4    5 ar
   9    4   44 1
  10    5    6 ar
  11    5   13 1
  12    6   45 1
  13    7    8 1
  14    7    9 1
  15    8   12 1
  16    8   46 1
  17    8   47 1
  18    9   10 1
  19    9   48 1
  20    9   49 1
  21   10   11 1
  22   10   50 1
  23   10   51 1
  24   11   12 1
  25   11   24 1
  26   12   52 1
  27   12   53 1
  28   13   14 2
  29   13   15 am
  30   15   34 1
  31   15   54 1
  32   16   17 am
  33   16   55 1
  34   17   18 2
  35   17   19 1
  36   19   20 2
  37   19   23 1
  38   20   21 1
  39   20   56 1
  40   21   22 1
  41   22   23 2
  42   22   31 1
  43   24   25 ar
  44   24   26 ar
  45   25   29 ar
  46   25   57 1
  47   26   27 ar
  48   26   30 1
  49   27   28 ar
  50   27   58 1
  51   28   29 ar
  52   29   59 1
  53   30   60 1
  54   30   61 1
  55   30   62 1
  56   31   32 1
  57   31   33 1
  58   31   63 1
  59   32   33 1
  60   32   64 1
  61   32   65 1
  62   33   66 1
  63   33   67 1
  64   34   35 1
  65   34   68 1
  66   34   69 1
  67   35   36 1
  68   35   70 1
  69   35   71 1
  70   36   37 1
  71   36   72 1
  72   36   73 1
  73   37   38 am
  74   37   39 1
  75   38   42 2
  76   38   41 1
  77   39   40 1
  78   39   74 1
  79   39   75 1
  80   40   41 1
  81   40   76 1
  82   40   77 1
  83   41   78 1
  84   41   79 1

#	End of record

