#	Name: ASD01911807
#	Creating user name:	WinNT
#	Creation time:	15. 06. 2019 19:58

#	Modifying user name:	WinNT
#	Modification time:	15. 06. 2019 19:58

#	Program:	/corina/corina34_cracker 3.40 0067  02.08.2006

@<TRIPOS>MOLECULE
ASD01911807
  29   29    0    0    0
SMALL
NO_CHARGES


@<TRIPOS>ATOM
   1 C1            -0.1463     1.1730    -1.2974 C.2     
   2 C2            -0.0533    -0.1465    -0.5752 C.3     
   3 C3             1.3705    -0.6392    -0.6109 C.2     
   4 O4             0.8420     1.6629    -1.7904 O.2     
   5 O5             2.2255     0.0165    -1.1679 O.2     
   6 N6             1.6937    -1.8086    -0.0238 N.am    
   7 C7             2.9999    -2.3088    -0.1293 C.ar    
   8 C8             3.2314    -3.6763    -0.0251 C.ar    
   9 C9             4.5185    -4.1685    -0.1291 C.ar    
  10 C10            5.5803    -3.2965    -0.3376 C.ar    
  11 C11            5.3475    -1.9309    -0.4414 C.ar    
  12 C12            4.0604    -1.4398    -0.3431 C.ar    
  13 S13            7.2219    -3.9230    -0.4697 S.3     
  14 C14            8.2107    -2.4246    -0.7300 C.3     
  15 F15            2.1985    -4.5231     0.1780 F       
  16 O16           -1.3283     1.8012    -1.3977 O.3     
  17 C17           -1.3433     3.0681    -2.1069 C.3     
  18 H18           -0.3670    -0.0167     0.4605 H       
  19 H19           -0.7019    -0.8741    -1.0629 H       
  20 H20            1.0231    -2.3043     0.4716 H       
  21 H21            4.6992    -5.2302    -0.0480 H       
  22 H22            6.1729    -1.2535    -0.6034 H       
  23 H23            3.8797    -0.3784    -0.4283 H       
  24 H24            7.8790    -1.9238    -1.6395 H       
  25 H25            8.0853    -1.7543     0.1203 H       
  26 H26            9.2621    -2.6955    -0.8272 H       
  27 H27           -0.6787     3.7725    -1.6067 H       
  28 H28           -1.0052     2.9148    -3.1318 H       
  29 H29           -2.3572     3.4681    -2.1148 H       
@<TRIPOS>BOND
   1    1    2 1
   2    1    4 2
   3    1   16 1
   4    2    3 1
   5    2   18 1
   6    2   19 1
   7    3    5 2
   8    3    6 am
   9    6    7 1
  10    6   20 1
  11    7    8 ar
  12    7   12 ar
  13    8    9 ar
  14    8   15 1
  15    9   10 ar
  16    9   21 1
  17   10   11 ar
  18   10   13 1
  19   11   12 ar
  20   11   22 1
  21   12   23 1
  22   13   14 1
  23   14   24 1
  24   14   25 1
  25   14   26 1
  26   16   17 1
  27   17   27 1
  28   17   28 1
  29   17   29 1

#	End of record

