#	Name: ASD01410237
#	Creating user name:	WinNT
#	Creation time:	15. 06. 2019 19:17

#	Modifying user name:	WinNT
#	Modification time:	15. 06. 2019 19:17

#	Program:	/corina/corina34_cracker 3.40 0067  02.08.2006

@<TRIPOS>MOLECULE
ASD01410237
  57   60    0    0    0
SMALL
NO_CHARGES


@<TRIPOS>ATOM
   1 C1            -0.0163     1.3475     0.0095 C.2     
   2 C2             0.0021    -0.0041     0.0020 C.2     
   3 C3            -1.3321    -0.4376     0.0133 C.2     
   4 C4            -2.1146     0.7003     0.0274 C.2     
   5 O5            -1.2891     1.7679     0.0297 O.3     
   6 C6            -4.1759     1.9388     0.0546 C.2     
   7 S7            -3.4708     3.5687     0.0561 S.3     
   8 C8            -5.0402     4.3930     0.0687 C.2     
   9 N9            -5.9628     3.4599     0.0710 N.2     
  10 C10           -5.6233     2.1888     0.0644 C.2     
  11 C11           -3.5274     0.7396     0.0415 C.2     
  12 O12           -6.4473     1.2871     0.0659 O.2     
  13 N13           -5.2500     5.7478     0.0749 N.pl3   
  14 C14           -6.6159     6.2774     0.0851 C.3     
  15 C15            1.1990     2.2387     0.0026 C.3     
  16 C16            1.5965     2.5480    -1.4421 C.3     
  17 C17           -8.4797     6.2972     1.7569 C.ar    
  18 C18           -7.1203     6.3385     1.5039 C.ar    
  19 C19           -6.2245     6.4353     2.5523 C.ar    
  20 C20           -6.6863     6.4914     3.8536 C.ar    
  21 C21           -8.0459     6.4506     4.1079 C.ar    
  22 C22           -8.9429     6.3590     3.0591 C.ar    
  23 Cl23          -8.6259     6.5210     5.7427 Cl      
  24 C24           -6.6224     7.6617    -0.5104 C.2     
  25 O25           -5.5879     8.1572    -0.9045 O.2     
  26 N26           -7.7777     8.3492    -0.6049 N.am    
  27 S27           -7.7848     9.8705    -1.2593 S.o2    
  28 O28           -9.1376    10.3054    -1.2488 O.2     
  29 O29           -6.7336    10.5853    -0.6243 O.2     
  30 C30           -6.6069     9.4627    -5.6109 C.ar    
  31 C31           -7.9381     9.3905    -5.2456 C.ar    
  32 C32           -8.2979     9.5154    -3.9167 C.ar    
  33 C33           -7.3263     9.7118    -2.9531 C.ar    
  34 C34           -5.9951     9.7840    -3.3185 C.ar    
  35 C35           -5.6349     9.6538    -4.6468 C.ar    
  36 Cl36          -9.6046     6.1756     0.4402 Cl      
  37 N37           -6.2217     9.3290    -7.0339 N.pl3   
  38 O38           -7.0776     9.1553    -7.8828 O.2     
  39 O39           -5.0487     9.3926    -7.3558 O.2     
  40 H40            0.8800    -0.6329    -0.0108 H       
  41 H41           -1.6791    -1.4603     0.0108 H       
  42 H42           -4.0933    -0.1803     0.0420 H       
  43 H43           -4.4941     6.3556     0.0724 H       
  44 H44           -7.2626     5.6260    -0.5027 H       
  45 H45            0.9707     3.1685     0.5237 H       
  46 H46            2.0231     1.7331     0.5059 H       
  47 H47            1.8248     1.6182    -1.9631 H       
  48 H48            0.7724     3.0536    -1.9454 H       
  49 H49            2.4755     3.1926    -1.4470 H       
  50 H50           -5.1632     6.4668     2.3543 H       
  51 H51           -5.9859     6.5667     4.6723 H       
  52 H52          -10.0041     6.3272     3.2571 H       
  53 H53           -8.6051     7.9530    -0.2896 H       
  54 H54           -8.6971     9.2368    -5.9983 H       
  55 H55           -9.3380     9.4597    -3.6313 H       
  56 H56           -5.2361     9.9378    -2.5658 H       
  57 H57           -4.5948     9.7103    -4.9323 H       
@<TRIPOS>BOND
   1    1    2 2
   2    1   15 1
   3    1    5 1
   4    2    3 1
   5    2   40 1
   6    3    4 2
   7    3   41 1
   8    4    5 1
   9    4   11 1
  10    6    7 1
  11    6   10 1
  12    6   11 2
  13    7    8 1
  14    8    9 2
  15    8   13 1
  16    9   10 1
  17   10   12 2
  18   11   42 1
  19   13   14 1
  20   13   43 1
  21   14   18 1
  22   14   24 1
  23   14   44 1
  24   15   16 1
  25   15   45 1
  26   15   46 1
  27   16   47 1
  28   16   48 1
  29   16   49 1
  30   17   18 ar
  31   17   36 1
  32   17   22 ar
  33   18   19 ar
  34   19   20 ar
  35   19   50 1
  36   20   21 ar
  37   20   51 1
  38   21   22 ar
  39   21   23 1
  40   22   52 1
  41   24   25 2
  42   24   26 am
  43   26   27 am
  44   26   53 1
  45   27   28 2
  46   27   29 2
  47   27   33 1
  48   30   31 ar
  49   30   37 1
  50   30   35 ar
  51   31   32 ar
  52   31   54 1
  53   32   33 ar
  54   32   55 1
  55   33   34 ar
  56   34   35 ar
  57   34   56 1
  58   35   57 1
  59   37   38 2
  60   37   39 2

#	End of record

