#	Name: ASD03090989
#	Creating user name:	WinNT
#	Creation time:	15. 06. 2019 20:29

#	Modifying user name:	WinNT
#	Modification time:	15. 06. 2019 20:29

#	Program:	/corina/corina34_cracker 3.40 0067  02.08.2006

@<TRIPOS>MOLECULE
ASD03090989
  38   41    0    0    0
SMALL
NO_CHARGES


@<TRIPOS>ATOM
   1 N1            -0.0189     1.4674    -0.0873 N.am    
   2 C2             0.0008    -0.0023    -0.1211 C.3     
   3 C3             1.4804    -0.4406    -0.1348 C.3     
   4 C4             2.2128     0.7898     0.4629 C.3     
   5 C5             1.3707     1.9593    -0.1054 C.3     
   6 C6            -1.1244     2.2375    -0.0517 C.2     
   7 O7            -2.2277     1.7199    -0.0455 O.2     
   8 N8            -1.0106     3.5693    -0.0233 N.2     
   9 S9            -3.7373     3.7929     0.0270 S.3     
  10 C10           -2.1009     4.3289     0.0118 C.2     
  11 N11           -2.1511     5.6872     0.0435 N.pl3   
  12 C12           -3.3722     6.2599     0.0770 C.2     
  13 C13           -4.4300     5.4236     0.0756 C.2     
  14 O14            2.3038     8.9469     0.0181 O.3     
  15 C15            1.6282    10.1822     0.3192 C.3     
  16 O16            0.2818     9.9563    -0.1384 O.3     
  17 C17            0.0901     8.6072    -0.0558 C.ar    
  18 C18            1.3336     7.9859     0.0405 C.ar    
  19 C19           -1.0646     7.8437    -0.0549 C.ar    
  20 C20           -0.9819     6.4610     0.0420 C.ar    
  21 C21            0.2581     5.8449     0.1378 C.ar    
  22 C22            1.4115     6.6062     0.1369 C.ar    
  23 F23            1.6444    10.4284     1.6963 F       
  24 F24            2.2126    11.2448    -0.3783 F       
  25 C25           -5.8172     5.7775     0.1069 C.1     
  26 N26           -6.9176     6.0583     0.1317 N.1     
  27 H27           -0.4954    -0.4001     0.7641 H       
  28 H28           -0.4999    -0.3592    -1.0211 H       
  29 H29            1.6281    -1.3196     0.4925 H       
  30 H30            1.8165    -0.6319    -1.1539 H       
  31 H31            2.1761     0.7751     1.5521 H       
  32 H32            3.2424     0.8416     0.1088 H       
  33 H33            1.6790     2.1880    -1.1255 H       
  34 H34            1.4694     2.8407     0.5283 H       
  35 H35           -3.4960     7.3324     0.1038 H       
  36 H36           -2.0294     8.3233    -0.1291 H       
  37 H37            0.3217     4.7694     0.2135 H       
  38 H38            2.3753     6.1246     0.2116 H       
@<TRIPOS>BOND
   1    1    2 1
   2    1    5 1
   3    1    6 am
   4    2    3 1
   5    2   27 1
   6    2   28 1
   7    3    4 1
   8    3   29 1
   9    3   30 1
  10    4    5 1
  11    4   31 1
  12    4   32 1
  13    5   33 1
  14    5   34 1
  15    6    7 2
  16    6    8 1
  17    8   10 2
  18    9   10 1
  19    9   13 1
  20   10   11 1
  21   11   12 1
  22   11   20 1
  23   12   13 2
  24   12   35 1
  25   13   25 1
  26   14   15 1
  27   14   18 1
  28   15   16 1
  29   15   23 1
  30   15   24 1
  31   16   17 1
  32   17   18 ar
  33   17   19 ar
  34   18   22 ar
  35   19   20 ar
  36   19   36 1
  37   20   21 ar
  38   21   22 ar
  39   21   37 1
  40   22   38 1
  41   25   26 3

#	End of record

