#	Name: ASD02120013
#	Creating user name:	WinNT
#	Creation time:	15. 06. 2019 20:18

#	Modifying user name:	WinNT
#	Modification time:	15. 06. 2019 20:18

#	Program:	/corina/corina34_cracker 3.40 0067  02.08.2006

@<TRIPOS>MOLECULE
ASD02120013
 305  308    0    0    0
SMALL
NO_CHARGES


@<TRIPOS>ATOM
   1 C1            -1.3782    -4.9782    -1.3726 C.3     
   2 C2            -1.0935    -6.0339    -0.3279 C.2     
   3 C3            -0.0736    -4.6206    -2.0830 C.3     
   4 C4            -1.9478    -3.7451    -0.6635 C.3     
   5 C5            -0.3212    -3.6374    -3.2241 C.3     
   6 C6             0.8469    -2.6498    -3.3157 C.3     
   7 C7             0.8323    -1.7255    -2.0972 C.3     
   8 C8             2.1694    -0.9906    -1.9916 C.3     
   9 C9             2.6422    -1.0157    -0.5349 C.3     
  10 C10            3.5444     0.1915    -0.2728 C.3     
  11 C11            3.9579     0.2050     1.2000 C.3     
  12 C12            4.8720     1.4013     1.4628 C.3     
  13 O13           -0.3529    -5.7485     0.5974 O.2     
  14 C14            0.0438    -7.7806     7.4051 C.3     
  15 C15           -0.1274    -6.8195     8.5576 C.2     
  16 O16           -1.0998    -6.0939     8.5990 O.2     
  17 N17            5.7850     1.4728     6.3026 N.3     
  18 C18            6.4248     1.3433     4.9995 C.3     
  19 C19            7.4622     2.4389     4.8577 C.2     
  20 O20            7.6609     2.9496     3.7758 O.2     
  21 C21            5.3776     1.5199     3.9034 C.3     
  22 C22            7.1238    -0.0077     4.8552 C.3     
  23 C23            5.8900     1.0267     2.5519 C.3     
  24 C24            1.4736    -7.6934     6.8676 C.3     
  25 C25            2.4106    -8.3954     7.8164 C.2     
  26 C26            3.2524    -7.8126     8.6846 C.2     
  27 N27            3.9430    -8.7688     9.3781 N.pl3   
  28 C28            3.5525   -10.0220     8.9625 C.ar    
  29 C29            2.5711    -9.8433     7.9706 C.ar    
  30 C30            3.9255   -11.3117     9.3276 C.ar    
  31 C31            3.3367   -12.3943     8.7121 C.ar    
  32 C32            2.3731   -12.2124     7.7293 C.ar    
  33 C33            1.9865   -10.9549     7.3606 C.ar    
  34 O34          -21.7834   -14.5353    -3.4370 O.2     
  35 C35          -22.3237   -14.6807    -4.5130 C.2     
  36 C36          -23.1368   -15.9197    -4.7866 C.3     
  37 C37          -22.0058   -11.7791    -4.0072 C.3     
  38 C38          -21.4065   -12.5297    -5.1981 C.3     
  39 C39          -19.9859   -12.9208    -4.8821 C.2     
  40 N40          -22.1969   -13.7342    -5.4641 N.am    
  41 O41          -19.7337   -14.0515    -4.5231 O.2     
  42 C42          -23.4028   -11.2738    -4.3734 C.3     
  43 C43          -23.9931   -10.5345    -3.2004 C.2     
  44 O44          -23.3589   -10.4227    -2.1727 O.2     
  45 N45          -25.2257    -9.9975    -3.2935 N.am    
  46 C46          -16.9750   -13.0337    -5.9251 C.3     
  47 C47          -17.6145   -12.3942    -4.6910 C.3     
  48 C48          -16.8315   -11.1681    -4.2979 C.2     
  49 N49          -18.9955   -12.0140    -4.9983 N.am    
  50 O50          -17.3738   -10.0834    -4.2764 O.2     
  51 O51          -16.8764   -12.0619    -6.9682 O.3     
  52 C52          -14.9686    -9.8079    -2.0966 C.3     
  53 C53          -14.7677   -10.0848    -3.5879 C.3     
  54 C54          -13.3039   -10.3137    -3.8635 C.2     
  55 N55          -15.5288   -11.2768    -3.9701 N.am    
  56 O56          -12.9329   -11.3687    -4.3330 O.2     
  57 C57          -16.4340    -9.4530    -1.8367 C.3     
  58 C58          -16.6319    -9.1802    -0.3679 C.2     
  59 O59          -15.6933    -9.2616     0.3959 O.2     
  60 N60          -17.8519    -8.8457     0.0970 N.am    
  61 C61          -10.6811    -9.2303    -5.3174 C.3     
  62 C62          -10.9840    -9.5686    -3.8563 C.3     
  63 C63          -10.1591    -8.6864    -2.9550 C.2     
  64 N64          -12.4070    -9.3461    -3.5883 N.am    
  65 O65          -10.7060    -7.9448    -2.1664 O.2     
  66 C66          -11.4228   -10.2076    -6.2315 C.3     
  67 C67          -11.1245    -9.8743    -7.6706 C.2     
  68 O68          -10.3910    -8.9465    -7.9387 O.2     
  69 N69          -11.6730   -10.6073    -8.6597 N.am    
  70 C70           -7.8131    -8.5572    -0.7996 C.3     
  71 C71           -8.0118    -7.8639    -2.1490 C.3     
  72 C72           -6.6697    -7.6101    -2.7858 C.2     
  73 N73           -8.8136    -8.7216    -3.0252 N.am    
  74 O74           -6.3440    -8.2245    -3.7794 O.2     
  75 C75           -9.1760    -8.8224    -0.1569 C.3     
  76 O76           -7.1301    -9.7968    -0.9969 O.3     
  77 C77           -4.8562    -5.2780    -3.9853 C.3     
  78 C78           -4.5834    -6.3606    -2.9392 C.3     
  79 C79           -3.5803    -5.8497    -1.9373 C.2     
  80 N80           -5.8314    -6.7003    -2.2510 N.am    
  81 O81           -3.8785    -5.7765    -0.7640 O.2     
  82 C82           -5.7636    -5.8298    -5.0545 C.ar    
  83 C83           -7.1352    -5.7208    -4.9209 C.ar    
  84 C84           -7.9675    -6.2270    -5.9016 C.ar    
  85 C85           -7.4283    -6.8418    -7.0161 C.ar    
  86 C86           -6.0567    -6.9501    -7.1501 C.ar    
  87 C87           -5.2243    -6.4400    -6.1714 C.ar    
  88 N88           -2.3519    -5.4742    -2.3451 N.am    
  89 C89            0.0812    -8.6677     0.6279 C.3     
  90 C90           -1.3889    -8.2551     0.6337 C.3     
  91 C91           -1.7838    -7.7149     1.9792 C.2     
  92 N92           -1.6577    -7.2636    -0.4264 N.am    
  93 O93           -2.1253    -6.5574     2.1100 O.2     
  94 C94            0.3950    -9.3901    -0.6569 C.2     
  95 N95            1.6138    -9.9343    -0.8436 N.am    
  96 O96           -0.4491    -9.4818    -1.5228 O.2     
  97 C97           -3.6198    -8.5332     4.6646 C.3     
  98 C98           -2.2283    -7.9815     4.3423 C.3     
  99 C99           -1.2713    -8.3623     5.4466 C.2     
 100 N100          -1.7601    -8.5465     3.0604 N.am    
 101 O101          -0.8460    -9.4943     5.5296 O.2     
 102 C102          -4.6275    -8.0047     3.6418 C.3     
 103 C103          -5.9754    -8.6986     3.8483 C.3     
 104 C104          -4.7973    -6.4954     3.8261 C.3     
 105 N105          -0.9070    -7.3984     6.3377 N.am    
 106 C106           0.4094    -6.4266    11.9424 C.3     
 107 C107           0.6514    -5.7533    10.5897 C.3     
 108 C108           1.9227    -4.9396    10.6569 C.2     
 109 N109           0.8045    -6.7842     9.5446 N.am    
 110 O110           2.7237    -5.1361    11.5478 O.2     
 111 N111          -2.4493    -8.5552    13.2317 N.pl3   
 112 C112          -2.8818    -9.2403    14.3425 C.2     
 113 N113          -2.1530    -9.2564    15.4230 N.2     
 114 N114          -4.0830    -9.9084    14.3135 N.pl3   
 115 C115          -0.9274    -7.1701    11.9102 C.3     
 116 C116          -1.1693    -7.8432    13.2626 C.3     
 117 C117           4.5087    -4.2173     9.1062 C.3     
 118 C118           3.4449    -3.2978     9.7125 C.3     
 119 C119           3.3168    -2.0523     8.8767 C.2     
 120 N120           2.1395    -3.9955     9.6984 N.am    
 121 O121           2.2156    -1.6857     8.5322 O.2     
 122 C122           4.7558    -5.3998    10.0451 C.3     
 123 C123           5.7532    -6.3638     9.3995 C.3     
 124 C124           5.3250    -4.8887    11.3701 C.3     
 125 C125           3.8462    -0.8327     6.1405 C.3     
 126 C126           4.4114    -0.2039     7.4155 C.3     
 127 C127           4.5129    -1.2652     8.4884 C.2     
 128 N128           5.7337     0.3521     7.1631 N.3     
 129 O129           5.5762    -1.4494     9.0277 O.2     
 130 C130           4.7571    -1.9760     5.6886 C.3     
 131 C131           4.4036    -3.2467     6.4639 C.3     
 132 C132           4.5626    -2.2215     4.1910 C.3     
 133 C133           8.4855     5.2700     5.9084 C.3     
 134 C134           9.1670     3.9048     5.7969 C.3     
 135 C135          10.1962     3.7664     6.8891 C.2     
 136 N136           8.1642     2.8457     5.9340 N.am    
 137 O137          10.1013     2.8713     7.7019 O.2     
 138 C138           7.5309     5.4614     4.7282 C.3     
 139 C139           6.8596     6.8061     4.8380 C.2     
 140 O140           7.1191     7.5393     5.7686 O.2     
 141 N141           5.9708     7.1940     3.9020 N.am    
 142 C142          13.5376     5.1389     7.5693 C.3     
 143 C143          12.2225     4.5029     8.0243 C.3     
 144 C144          11.7319     5.1985     9.2678 C.2     
 145 N145          11.2221     4.6374     6.9626 N.am    
 146 O146          10.6528     5.7521     9.2673 O.2     
 147 C147          14.0911     4.3662     6.3998 C.2     
 148 N148          15.2511     4.7469     5.8289 N.am    
 149 O149          13.4926     3.4019     5.9722 O.2     
 150 N150          12.4924     5.2054    10.3806 N.am    
 151 H151           0.6292    -4.1919    -1.3689 H       
 152 H152           0.3655    -5.5352    -2.4961 H       
 153 H153          -1.2205    -3.3722     0.0576 H       
 154 H154          -2.1610    -2.9693    -1.3989 H       
 155 H155          -2.8673    -4.0166    -0.1449 H       
 156 H156          -0.3874    -4.1909    -4.1672 H       
 157 H157          -1.2453    -3.0864    -3.0803 H       
 158 H158           1.7844    -3.2026    -3.3464 H       
 159 H159           0.7453    -2.0564    -4.2249 H       
 160 H160           0.0256    -0.9994    -2.1997 H       
 161 H161           0.6753    -2.3152    -1.1934 H       
 162 H162           2.9087    -1.4837    -2.6218 H       
 163 H163           2.0444     0.0424    -2.3153 H       
 164 H164           1.7771    -0.9730     0.1279 H       
 165 H165           3.1995    -1.9340    -0.3489 H       
 166 H166           4.4346     0.1250    -0.8977 H       
 167 H167           3.0041     1.1096    -0.5031 H       
 168 H168           3.0720     0.2779     1.8298 H       
 169 H169           4.4914    -0.7163     1.4340 H       
 170 H170           5.4041     1.6637     0.5511 H       
 171 H171           4.2790     2.2483     1.8007 H       
 172 H172          -0.1707    -8.7951     7.7395 H       
 173 H173           5.7982     2.3771     6.7063 H       
 174 H174           4.4755     0.9662     4.1681 H       
 175 H175           5.1165     2.5812     3.8256 H       
 176 H176           6.3765    -0.7934     4.7442 H       
 177 H177           7.7676     0.0084     3.9758 H       
 178 H178           7.7260    -0.2018     5.7428 H       
 179 H179           5.9912    -0.0592     2.5529 H       
 180 H180           6.8453     1.4889     2.3155 H       
 181 H181           1.5234    -8.1700     5.8886 H       
 182 H182           1.7646    -6.6468     6.7774 H       
 183 H183           3.3679    -6.7468     8.8158 H       
 184 H184           4.6087    -8.5904    10.0606 H       
 185 H185           4.6744   -11.4635    10.0908 H       
 186 H186           3.6279   -13.3946     8.9966 H       
 187 H187           1.9216   -13.0720     7.2563 H       
 188 H188           1.2363   -10.8211     6.5953 H       
 189 H189         -23.1243   -16.5639    -3.9075 H       
 190 H190         -24.1643   -15.6368    -5.0152 H       
 191 H191         -22.7098   -16.4544    -5.6351 H       
 192 H192         -22.0752   -12.4511    -3.1518 H       
 193 H193         -21.3682   -10.9323    -3.7532 H       
 194 H194         -21.4190   -11.8855    -6.0772 H       
 195 H195         -22.6290   -13.8505    -6.3247 H       
 196 H196         -23.3334   -10.6018    -5.2288 H       
 197 H197         -24.0404   -12.1206    -4.6274 H       
 198 H198         -25.7329   -10.0869    -4.1154 H       
 199 H199         -25.6057    -9.5216    -2.5384 H       
 200 H200         -15.9790   -13.3966    -5.6714 H       
 201 H201         -17.5905   -13.8676    -6.2625 H       
 202 H202         -17.6089   -13.1084    -3.8676 H       
 203 H203         -19.1972   -11.1097    -5.2854 H       
 204 H204         -16.4792   -12.3984    -7.7831 H       
 205 H205         -14.7026   -10.6958    -1.5231 H       
 206 H206         -14.3338    -8.9755    -1.7929 H       
 207 H207         -15.1170    -9.2297    -4.1665 H       
 208 H208         -15.0951   -12.1443    -3.9872 H       
 209 H209         -16.7000    -8.5650    -2.4102 H       
 210 H210         -17.0688   -10.2854    -2.1405 H       
 211 H211         -18.6026    -8.7806    -0.5138 H       
 212 H212         -17.9793    -8.6702     1.0424 H       
 213 H213         -11.0096    -8.2130    -5.5303 H       
 214 H214          -9.6085    -9.3102    -5.4940 H       
 215 H215         -10.7376   -10.6134    -3.6667 H       
 216 H216         -12.7036    -8.5024    -3.2128 H       
 217 H217         -11.0943   -11.2249    -6.0185 H       
 218 H218         -12.4954   -10.1276    -6.0548 H       
 219 H219         -12.2597   -11.3494    -8.4453 H       
 220 H220         -11.4810   -10.3928    -9.5860 H       
 221 H221          -7.2215    -7.9165    -0.1456 H       
 222 H222          -8.5274    -6.9156    -1.9978 H       
 223 H223          -8.3762    -9.3147    -3.6559 H       
 224 H224          -9.7302    -9.5390    -0.7631 H       
 225 H225          -9.0327    -9.2279     0.8446 H       
 226 H226          -9.7360    -7.8894    -0.0945 H       
 227 H227          -6.2567    -9.7046    -1.4016 H       
 228 H228          -5.3355    -4.4236    -3.5074 H       
 229 H229          -3.9150    -4.9620    -4.4351 H       
 230 H230          -4.1861    -7.2488    -3.4306 H       
 231 H231          -6.0543    -6.2704    -1.4106 H       
 232 H232          -7.5565    -5.2404    -4.0502 H       
 233 H233          -9.0391    -6.1424    -5.7970 H       
 234 H234          -8.0786    -7.2380    -7.7820 H       
 235 H235          -5.6355    -7.4307    -8.0207 H       
 236 H236          -4.1526    -6.5212    -6.2779 H       
 237 H237          -2.1134    -5.5327    -3.2835 H       
 238 H238           0.7081    -7.7797     0.7079 H       
 239 H239           0.2766    -9.3278     1.4730 H       
 240 H240          -2.0015    -9.1462     0.4316 H       
 241 H241          -2.2364    -7.5120    -1.1774 H       
 242 H242           2.2890    -9.8610    -0.1510 H       
 243 H243           1.8159   -10.3993    -1.6705 H       
 244 H244          -3.5974    -9.6222     4.6233 H       
 245 H245          -3.9149    -8.2136     5.6640 H       
 246 H246          -2.2731    -6.8940     4.2687 H       
 247 H247          -1.4544    -9.4654     2.9879 H       
 248 H248          -4.2641    -8.2091     2.6347 H       
 249 H249          -6.7158    -8.2606     3.1790 H       
 250 H250          -5.8736    -9.7620     3.6315 H       
 251 H251          -6.2970    -8.5676     4.8815 H       
 252 H252          -3.8371    -6.0011     3.6790 H       
 253 H253          -5.5152    -6.1189     3.0975 H       
 254 H254          -5.1607    -6.2910     4.8333 H       
 255 H255          -1.2586    -6.4928     6.2645 H       
 256 H256           1.2137    -7.1337    12.1454 H       
 257 H257           0.3852    -5.6693    12.7260 H       
 258 H258          -0.1814    -5.0963    10.3480 H       
 259 H259           1.5441    -7.4169     9.5789 H       
 260 H260          -2.9917    -8.5432    12.4276 H       
 261 H261          -2.4582    -9.7398    16.2067 H       
 262 H262          -4.6254    -9.8964    13.5093 H       
 263 H263          -4.3882   -10.3918    15.0971 H       
 264 H264          -1.7316    -6.4629    11.7072 H       
 265 H265          -0.9031    -7.9274    11.1266 H       
 266 H266          -1.1936    -7.0859    14.0462 H       
 267 H267          -0.3650    -8.5504    13.4656 H       
 268 H268           4.1625    -4.5862     8.1407 H       
 269 H269           5.4360    -3.6606     8.9712 H       
 270 H270           3.7166    -3.0336    10.7288 H       
 271 H271           1.4592    -3.7899     9.0295 H       
 272 H272           3.8157    -5.9196    10.2299 H       
 273 H273           6.7096    -5.8591     9.2623 H       
 274 H274           5.8896    -7.2316    10.0449 H       
 275 H275           5.3711    -6.6876     8.4314 H       
 276 H276           6.2651    -4.3689    11.1852 H       
 277 H277           4.6145    -4.2019    11.8300 H       
 278 H278           5.5011    -5.7311    12.0390 H       
 279 H279           2.8472    -1.2209     6.3388 H       
 280 H280           3.7936    -0.0782     5.3557 H       
 281 H281           3.7400     0.5859     7.7579 H       
 282 H282           6.4918    -0.2542     7.2641 H       
 283 H283           5.7965    -1.7101     5.8812 H       
 284 H284           3.3290    -3.4199     6.4070 H       
 285 H285           4.9320    -4.0957     6.0303 H       
 286 H286           4.6980    -3.1297     7.5069 H       
 287 H287           4.8941    -1.3457     3.6331 H       
 288 H288           5.1475    -3.0893     3.8861 H       
 289 H289           3.5076    -2.4045     3.9869 H       
 290 H290           7.9244     5.3209     6.8415 H       
 291 H291           9.2411     6.0555     5.8956 H       
 292 H292           9.6544     3.8202     4.8256 H       
 293 H293           8.0053     2.4372     6.7993 H       
 294 H294           8.0920     5.4105     3.7951 H       
 295 H295           6.7752     4.6759     4.7410 H       
 296 H296           5.7632     6.6077     3.1577 H       
 297 H297           5.5387     8.0596     3.9727 H       
 298 H298          13.3575     6.1714     7.2701 H       
 299 H299          14.2543     5.1182     8.3903 H       
 300 H300          12.3849     3.4466     8.2388 H       
 301 H301          11.2980     5.3533     6.3125 H       
 302 H302          15.7298     5.5182     6.1709 H       
 303 H303          15.6074     4.2496     5.0761 H       
 304 H304          13.3554     4.7626    10.3810 H       
 305 H305          12.1766     5.6531    11.1810 H       
@<TRIPOS>BOND
   1    1    2 1
   2    1    3 1
   3    1    4 1
   4    1   88 1
   5    2   13 2
   6    2   92 am
   7    3    5 1
   8    3  151 1
   9    3  152 1
  10    4  153 1
  11    4  154 1
  12    4  155 1
  13    5    6 1
  14    5  156 1
  15    5  157 1
  16    6    7 1
  17    6  158 1
  18    6  159 1
  19    7    8 1
  20    7  160 1
  21    7  161 1
  22    8    9 1
  23    8  162 1
  24    8  163 1
  25    9   10 1
  26    9  164 1
  27    9  165 1
  28   10   11 1
  29   10  166 1
  30   10  167 1
  31   11   12 1
  32   11  168 1
  33   11  169 1
  34   12   23 1
  35   12  170 1
  36   12  171 1
  37   14   15 1
  38   14   24 1
  39   14  105 1
  40   14  172 1
  41   15   16 2
  42   15  109 am
  43   17   18 1
  44   17  128 1
  45   17  173 1
  46   18   19 1
  47   18   21 1
  48   18   22 1
  49   19   20 2
  50   19  136 am
  51   21   23 1
  52   21  174 1
  53   21  175 1
  54   22  176 1
  55   22  177 1
  56   22  178 1
  57   23  179 1
  58   23  180 1
  59   24   25 1
  60   24  181 1
  61   24  182 1
  62   25   26 2
  63   25   29 1
  64   26   27 1
  65   26  183 1
  66   27   28 1
  67   27  184 1
  68   28   29 ar
  69   28   30 ar
  70   29   33 ar
  71   30   31 ar
  72   30  185 1
  73   31   32 ar
  74   31  186 1
  75   32   33 ar
  76   32  187 1
  77   33  188 1
  78   34   35 2
  79   35   36 1
  80   35   40 am
  81   36  189 1
  82   36  190 1
  83   36  191 1
  84   37   42 1
  85   37   38 1
  86   37  192 1
  87   37  193 1
  88   38   40 1
  89   38   39 1
  90   38  194 1
  91   39   41 2
  92   39   49 am
  93   40  195 1
  94   42   43 1
  95   42  196 1
  96   42  197 1
  97   43   44 2
  98   43   45 am
  99   45  198 1
 100   45  199 1
 101   46   47 1
 102   46   51 1
 103   46  200 1
 104   46  201 1
 105   47   49 1
 106   47   48 1
 107   47  202 1
 108   48   50 2
 109   48   55 am
 110   49  203 1
 111   51  204 1
 112   52   57 1
 113   52   53 1
 114   52  205 1
 115   52  206 1
 116   53   55 1
 117   53   54 1
 118   53  207 1
 119   54   56 2
 120   54   64 am
 121   55  208 1
 122   57   58 1
 123   57  209 1
 124   57  210 1
 125   58   59 2
 126   58   60 am
 127   60  211 1
 128   60  212 1
 129   61   62 1
 130   61   66 1
 131   61  213 1
 132   61  214 1
 133   62   64 1
 134   62   63 1
 135   62  215 1
 136   63   65 2
 137   63   73 am
 138   64  216 1
 139   66   67 1
 140   66  217 1
 141   66  218 1
 142   67   68 2
 143   67   69 am
 144   69  219 1
 145   69  220 1
 146   70   71 1
 147   70   75 1
 148   70   76 1
 149   70  221 1
 150   71   73 1
 151   71   72 1
 152   71  222 1
 153   72   74 2
 154   72   80 am
 155   73  223 1
 156   75  224 1
 157   75  225 1
 158   75  226 1
 159   76  227 1
 160   77   78 1
 161   77   82 1
 162   77  228 1
 163   77  229 1
 164   78   79 1
 165   78   80 1
 166   78  230 1
 167   79   81 2
 168   79   88 am
 169   80  231 1
 170   82   83 ar
 171   82   87 ar
 172   83   84 ar
 173   83  232 1
 174   84   85 ar
 175   84  233 1
 176   85   86 ar
 177   85  234 1
 178   86   87 ar
 179   86  235 1
 180   87  236 1
 181   88  237 1
 182   89   94 1
 183   89   90 1
 184   89  238 1
 185   89  239 1
 186   90   92 1
 187   90   91 1
 188   90  240 1
 189   91   93 2
 190   91  100 am
 191   92  241 1
 192   94   95 am
 193   94   96 2
 194   95  242 1
 195   95  243 1
 196   97  102 1
 197   97   98 1
 198   97  244 1
 199   97  245 1
 200   98  100 1
 201   98   99 1
 202   98  246 1
 203   99  101 2
 204   99  105 am
 205  100  247 1
 206  102  103 1
 207  102  104 1
 208  102  248 1
 209  103  249 1
 210  103  250 1
 211  103  251 1
 212  104  252 1
 213  104  253 1
 214  104  254 1
 215  105  255 1
 216  106  115 1
 217  106  107 1
 218  106  256 1
 219  106  257 1
 220  107  109 1
 221  107  108 1
 222  107  258 1
 223  108  110 2
 224  108  120 am
 225  109  259 1
 226  111  116 1
 227  111  112 1
 228  111  260 1
 229  112  113 2
 230  112  114 1
 231  113  261 1
 232  114  262 1
 233  114  263 1
 234  115  116 1
 235  115  264 1
 236  115  265 1
 237  116  266 1
 238  116  267 1
 239  117  122 1
 240  117  118 1
 241  117  268 1
 242  117  269 1
 243  118  120 1
 244  118  119 1
 245  118  270 1
 246  119  121 2
 247  119  127 1
 248  120  271 1
 249  122  123 1
 250  122  124 1
 251  122  272 1
 252  123  273 1
 253  123  274 1
 254  123  275 1
 255  124  276 1
 256  124  277 1
 257  124  278 1
 258  125  130 1
 259  125  126 1
 260  125  279 1
 261  125  280 1
 262  126  128 1
 263  126  127 1
 264  126  281 1
 265  127  129 2
 266  128  282 1
 267  130  131 1
 268  130  132 1
 269  130  283 1
 270  131  284 1
 271  131  285 1
 272  131  286 1
 273  132  287 1
 274  132  288 1
 275  132  289 1
 276  133  138 1
 277  133  134 1
 278  133  290 1
 279  133  291 1
 280  134  136 1
 281  134  135 1
 282  134  292 1
 283  135  137 2
 284  135  145 am
 285  136  293 1
 286  138  139 1
 287  138  294 1
 288  138  295 1
 289  139  140 2
 290  139  141 am
 291  141  296 1
 292  141  297 1
 293  142  147 1
 294  142  143 1
 295  142  298 1
 296  142  299 1
 297  143  145 1
 298  143  144 1
 299  143  300 1
 300  144  146 2
 301  144  150 am
 302  145  301 1
 303  147  148 am
 304  147  149 2
 305  148  302 1
 306  148  303 1
 307  150  304 1
 308  150  305 1

#	End of record

