#	Name: ASD06170121
#	Creating user name:	WinNT
#	Creation time:	15. 06. 2019 21:05

#	Modifying user name:	WinNT
#	Modification time:	15. 06. 2019 21:05

#	Program:	/corina/corina34_cracker 3.40 0067  02.08.2006

@<TRIPOS>MOLECULE
ASD06170121
  69   73    0    0    0
SMALL
NO_CHARGES


@<TRIPOS>ATOM
   1 N1             0.1586    -1.8886     0.8476 N.pl3   
   2 N2             0.1679    -0.6017     0.3016 N.am    
   3 C3             1.4367    -0.2851    -0.0305 C.2     
   4 C4             2.2656    -1.4459     0.3313 C.2     
   5 C5             1.4087    -2.3891     0.8642 C.2     
   6 C6             3.7176    -1.5760     0.1596 C.2     
   7 O7             4.2818    -2.5979     0.5034 O.2     
   8 N8             4.4258    -0.5636    -0.3788 N.am    
   9 C9            -0.9507     0.2199     0.1282 C.ar    
  10 C10           -0.8722     1.5743     0.4253 C.ar    
  11 C11           -1.9784     2.3829     0.2525 C.ar    
  12 C12           -3.1633     1.8453    -0.2157 C.ar    
  13 C13           -3.2449     0.4970    -0.5121 C.ar    
  14 C14           -2.1407    -0.3159    -0.3469 C.ar    
  15 C15           -1.0334    -2.5868     1.3353 C.3     
  16 C16           -1.5420    -3.5194     0.2663 C.2     
  17 C17           -2.7669    -4.3598     0.5199 C.3     
  18 O18           -0.9679    -3.5932    -0.7936 O.2     
  19 O19            1.8202     0.7556    -0.5311 O.2     
  20 C20            1.8059    -3.7489     1.3780 C.3     
  21 C21            5.8222    -0.6444    -0.4466 C.ar    
  22 C22            6.4364    -1.8672    -0.6848 C.ar    
  23 C23            7.8147    -1.9459    -0.7515 C.ar    
  24 C24            8.5847    -0.8017    -0.5801 C.ar    
  25 C25            7.9704     0.4183    -0.3419 C.ar    
  26 C26            6.5926     0.4986    -0.2813 C.ar    
  27 F27            8.4133    -3.1348    -0.9827 F       
  28 O28            9.9409    -0.8787    -0.6456 O.3     
  29 N29           11.6893    -0.7326    -4.3782 N.ar    
  30 C30           10.3825    -0.7639    -4.2623 C.ar    
  31 C31            9.7580    -0.8135    -3.0224 C.ar    
  32 C32           10.5228    -0.8309    -1.8692 C.ar    
  33 C33           11.9288    -0.7969    -2.0062 C.ar    
  34 C34           12.7699    -0.8122    -0.8835 C.ar    
  35 C35           14.1239    -0.7789    -1.0532 C.ar    
  36 C36           14.6823    -0.7295    -2.3384 C.ar    
  37 C37           13.8868    -0.7131    -3.4477 C.ar    
  38 C38           12.4898    -0.7470    -3.3056 C.ar    
  39 O39           16.0332    -0.6970    -2.4817 O.3     
  40 C40           16.5431    -0.6472    -3.8157 C.3     
  41 O41           14.9392    -0.7933     0.0349 O.3     
  42 C42           14.3097    -0.8436     1.3167 C.3     
  43 H43            3.9683     0.2210    -0.7194 H       
  44 H44            0.0528     1.9947     0.7914 H       
  45 H45           -1.9182     3.4361     0.4837 H       
  46 H46           -4.0270     2.4797    -0.3500 H       
  47 H47           -4.1719     0.0801    -0.8773 H       
  48 H48           -2.2038    -1.3680    -0.5828 H       
  49 H49           -0.7794    -3.1602     2.2268 H       
  50 H50           -1.8066    -1.8584     1.5799 H       
  51 H51           -3.1440    -4.1590     1.5227 H       
  52 H52           -3.5349    -4.1133    -0.2132 H       
  53 H53           -2.5077    -5.4151     0.4337 H       
  54 H54            1.7553    -4.4735     0.5653 H       
  55 H55            2.8240    -3.7078     1.7653 H       
  56 H56            1.1258    -4.0490     2.1752 H       
  57 H57            5.8374    -2.7559    -0.8176 H       
  58 H58            8.5693     1.3070    -0.2080 H       
  59 H59            6.1148     1.4502    -0.1008 H       
  60 H60            9.7757    -0.7507    -5.1556 H       
  61 H61            8.6802    -0.8376    -2.9587 H       
  62 H62           12.3482    -0.8499     0.1101 H       
  63 H63           14.3303    -0.6749    -4.4317 H       
  64 H64           16.2115    -1.5286    -4.3646 H       
  65 H65           16.1743     0.2502    -4.3123 H       
  66 H66           17.6325    -0.6252    -3.7876 H       
  67 H67           15.0719    -0.8502     2.0959 H       
  68 H68           13.6698     0.0299     1.4418 H       
  69 H69           13.7071    -1.7490     1.3903 H       
@<TRIPOS>BOND
   1    1    2 1
   2    1    5 1
   3    1   15 1
   4    2    3 am
   5    2    9 1
   6    3    4 1
   7    3   19 2
   8    4    5 2
   9    4    6 1
  10    5   20 1
  11    6    7 2
  12    6    8 am
  13    8   21 1
  14    8   43 1
  15    9   10 ar
  16    9   14 ar
  17   10   11 ar
  18   10   44 1
  19   11   12 ar
  20   11   45 1
  21   12   13 ar
  22   12   46 1
  23   13   14 ar
  24   13   47 1
  25   14   48 1
  26   15   16 1
  27   15   49 1
  28   15   50 1
  29   16   17 1
  30   16   18 2
  31   17   51 1
  32   17   52 1
  33   17   53 1
  34   20   54 1
  35   20   55 1
  36   20   56 1
  37   21   22 ar
  38   21   26 ar
  39   22   23 ar
  40   22   57 1
  41   23   24 ar
  42   23   27 1
  43   24   25 ar
  44   24   28 1
  45   25   26 ar
  46   25   58 1
  47   26   59 1
  48   28   32 1
  49   29   30 ar
  50   29   38 ar
  51   30   31 ar
  52   30   60 1
  53   31   32 ar
  54   31   61 1
  55   32   33 ar
  56   33   34 ar
  57   33   38 ar
  58   34   35 ar
  59   34   62 1
  60   35   36 ar
  61   35   41 1
  62   36   37 ar
  63   36   39 1
  64   37   38 ar
  65   37   63 1
  66   39   40 1
  67   40   64 1
  68   40   65 1
  69   40   66 1
  70   41   42 1
  71   42   67 1
  72   42   68 1
  73   42   69 1

#	End of record

