#	Name: ASD03240207
#	Creating user name:	WinNT
#	Creation time:	15. 06. 2019 20:34

#	Modifying user name:	WinNT
#	Modification time:	15. 06. 2019 20:34

#	Program:	/corina/corina34_cracker 3.40 0067  02.08.2006

@<TRIPOS>MOLECULE
ASD03240207
  81   86    0    0    0
SMALL
NO_CHARGES


@<TRIPOS>ATOM
   1 C1             0.3256     2.3071     1.0750 C.2     
   2 N2             0.4547     1.0410     1.5951 N.pl3   
   3 C3            -2.5108     4.6964     0.5575 C.3     
   4 C4            -1.0460     4.2610     0.4822 C.3     
   5 N5            -0.9085     2.9119     1.0364 N.pl3   
   6 N6             1.3741     2.9362     0.6235 N.2     
   7 N7            -2.6484     6.0456     0.0034 N.pl3   
   8 C8            -3.8966     6.6572    -0.0357 C.ar    
   9 C9            -4.0256     7.9394    -0.5626 C.ar    
  10 C10           -5.2594     8.5474    -0.6027 C.ar    
  11 C11           -6.3841     7.8761    -0.1139 C.ar    
  12 C12           -6.2513     6.5884     0.4142 C.ar    
  13 C13           -5.0154     5.9840     0.4470 C.ar    
  14 C14           -7.7080     8.5251    -0.1549 C.2     
  15 N15           -8.7913     7.8766     0.3166 N.am    
  16 O16           -7.8220     9.6453    -0.6142 O.2     
  17 C17          -10.0278     8.5318     0.3789 C.ar    
  18 C18          -11.2030     7.8162     0.1913 C.ar    
  19 C19          -10.0786     9.8960     0.6339 C.ar    
  20 C20          -11.2973    10.5418     0.6958 C.ar    
  21 C21          -12.4725     9.8272     0.5025 C.ar    
  22 C22          -12.4218     8.4619     0.2527 C.ar    
  23 N23          -13.7074    10.4815     0.5656 N.pl3   
  24 C24          -14.9289     9.7812     0.1607 C.3     
  25 C25          -13.7792    11.8668     1.0366 C.3     
  26 C26          -14.3946    11.8986     2.4118 C.ar    
  27 C27          -15.4091    10.3304    -1.1579 C.ar    
  28 C28          -16.3702    11.2934    -1.1886 C.ar    
  29 C29          -16.8268    11.8133    -2.3985 C.ar    
  30 C30          -16.3248    11.3730    -3.5843 C.ar    
  31 C31          -15.3307    10.3796    -3.5927 C.ar    
  32 C32          -14.8626     9.8548    -2.3622 C.ar    
  33 C33          -15.7275    12.1301     2.5596 C.ar    
  34 C34          -16.3144    12.1632     3.8233 C.ar    
  35 C35          -15.5716    11.9649     4.9463 C.ar    
  36 C36          -14.1918    11.7225     4.8335 C.ar    
  37 C37          -13.5961    11.6836     3.5482 C.ar    
  38 C38          -13.3923    11.5131     5.9701 C.ar    
  39 C39          -12.0594    11.2812     5.8223 C.ar    
  40 C40          -11.4725    11.2482     4.5586 C.ar    
  41 C41          -12.2163    11.4413     3.4353 C.ar    
  42 C42          -14.7883     9.9000    -4.7972 C.ar    
  43 C43          -13.8269     8.9372    -4.7665 C.ar    
  44 C44          -13.3703     8.4172    -3.5566 C.ar    
  45 C45          -13.8686     8.8614    -2.3706 C.ar    
  46 H46            1.3260     0.6158     1.6260 H       
  47 H47           -0.3256     0.5728     1.9311 H       
  48 H48           -3.1258     4.0034    -0.0165 H       
  49 H49           -2.8370     4.6958     1.5976 H       
  50 H50           -0.7198     4.2616    -0.5578 H       
  51 H51           -0.4310     4.9541     1.0563 H       
  52 H52           -1.6881     2.4453     1.3761 H       
  53 H53            1.2830     3.8295     0.2566 H       
  54 H54           -1.8688     6.5122    -0.3363 H       
  55 H55           -3.1564     8.4575    -0.9400 H       
  56 H56           -5.3587     9.5423    -1.0109 H       
  57 H57           -7.1181     6.0674     0.7928 H       
  58 H58           -4.9121     4.9893     0.8548 H       
  59 H59           -8.7147     6.9561     0.6129 H       
  60 H60          -11.1636     6.7545    -0.0029 H       
  61 H61           -9.1648    10.4516     0.7842 H       
  62 H62          -11.3368    11.6026     0.8948 H       
  63 H63          -13.3355     7.9061     0.1024 H       
  64 H64          -14.7197     8.7166     0.0564 H       
  65 H65          -15.6995     9.9276     0.9176 H       
  66 H66          -12.7751    12.2890     1.0780 H       
  67 H67          -14.3916    12.4524     0.3509 H       
  68 H68          -16.7855    11.6601    -0.2615 H       
  69 H69          -17.5906    12.5768    -2.3949 H       
  70 H70          -16.6887    11.7845    -4.5142 H       
  71 H71          -16.3397    12.2910     1.6845 H       
  72 H72          -17.3745    12.3493     3.9128 H       
  73 H73          -16.0398    11.9941     5.9190 H       
  74 H74          -13.8332    11.5365     6.9557 H       
  75 H75          -11.4472    11.1206     6.6975 H       
  76 H76          -10.4123    11.0629     4.4692 H       
  77 H77          -11.7480    11.4126     2.4626 H       
  78 H78          -15.1328    10.2931    -5.7422 H       
  79 H79          -13.4117     8.5703    -5.6936 H       
  80 H80          -12.6070     7.6532    -3.5602 H       
  81 H81          -13.5050     8.4494    -1.4407 H       
@<TRIPOS>BOND
   1    1    2 1
   2    1    6 2
   3    1    5 1
   4    2   46 1
   5    2   47 1
   6    3    4 1
   7    3    7 1
   8    3   48 1
   9    3   49 1
  10    4    5 1
  11    4   50 1
  12    4   51 1
  13    5   52 1
  14    6   53 1
  15    7    8 1
  16    7   54 1
  17    8    9 ar
  18    8   13 ar
  19    9   10 ar
  20    9   55 1
  21   10   11 ar
  22   10   56 1
  23   11   12 ar
  24   11   14 1
  25   12   13 ar
  26   12   57 1
  27   13   58 1
  28   14   15 am
  29   14   16 2
  30   15   17 1
  31   15   59 1
  32   17   18 ar
  33   17   19 ar
  34   18   22 ar
  35   18   60 1
  36   19   20 ar
  37   19   61 1
  38   20   21 ar
  39   20   62 1
  40   21   22 ar
  41   21   23 1
  42   22   63 1
  43   23   24 1
  44   23   25 1
  45   24   27 1
  46   24   64 1
  47   24   65 1
  48   25   26 1
  49   25   66 1
  50   25   67 1
  51   26   33 ar
  52   26   37 ar
  53   27   28 ar
  54   27   32 ar
  55   28   29 ar
  56   28   68 1
  57   29   30 ar
  58   29   69 1
  59   30   31 ar
  60   30   70 1
  61   31   32 ar
  62   31   42 ar
  63   32   45 ar
  64   33   34 ar
  65   33   71 1
  66   34   35 ar
  67   34   72 1
  68   35   36 ar
  69   35   73 1
  70   36   37 ar
  71   36   38 ar
  72   37   41 ar
  73   38   39 ar
  74   38   74 1
  75   39   40 ar
  76   39   75 1
  77   40   41 ar
  78   40   76 1
  79   41   77 1
  80   42   43 ar
  81   42   78 1
  82   43   44 ar
  83   43   79 1
  84   44   45 ar
  85   44   80 1
  86   45   81 1

#	End of record

