#	Name: ASD01883342
#	Creating user name:	WinNT
#	Creation time:	15. 06. 2019 19:46

#	Modifying user name:	WinNT
#	Modification time:	15. 06. 2019 19:46

#	Program:	/corina/corina34_cracker 3.40 0067  02.08.2006

@<TRIPOS>MOLECULE
ASD01883342
  47   49    0    0    0
SMALL
NO_CHARGES


@<TRIPOS>ATOM
   1 N1            -0.1180     1.3855    -0.9344 N.am    
   2 C2            -0.1800     0.0707    -1.2152 C.2     
   3 C3            -1.3419    -0.6670    -0.8865 C.2     
   4 C4            -2.4129     0.0008    -0.2682 C.2     
   5 C5            -2.2879     1.3768    -0.0003 C.2     
   6 C6            -1.1522     2.0287    -0.3320 C.2     
   7 O7             0.7637    -0.4841    -1.7525 O.2     
   8 C8            -1.4250    -2.0664    -1.1785 C.1     
   9 N9            -1.4910    -3.1766    -1.4101 N.1     
  10 N10           -3.5628    -0.6781     0.0685 N.pl3   
  11 C11            1.0912     2.1370    -1.2797 C.3     
  12 C12            0.9541     2.7016    -2.6951 C.3     
  13 C13           -3.6139    -2.0713    -0.0534 C.ar    
  14 C14           -2.8594    -2.8712     0.7951 C.ar    
  15 C15           -2.9104    -4.2457     0.6741 C.ar    
  16 C16           -3.7147    -4.8278    -0.2951 C.ar    
  17 C17           -4.4688    -4.0294    -1.1431 C.ar    
  18 C18           -4.4236    -2.6549    -1.0193 C.ar    
  19 O19           -3.7637    -6.1813    -0.4142 O.3     
  20 C20           -4.3241    -6.8911     0.6001 C.ar    
  21 C21           -4.9382    -6.2374     1.6637 C.ar    
  22 C22           -5.4959    -7.0041     2.6742 C.ar    
  23 C23           -5.4247    -8.3821     2.5934 C.ar    
  24 N24           -4.8352    -8.9709     1.5711 N.ar    
  25 C25           -4.2972    -8.2785     0.5870 C.ar    
  26 C26            2.2169     3.4864    -3.0558 C.3     
  27 C27            2.0797     4.0510    -4.4712 C.3     
  28 H28           -3.0982     1.9105     0.4741 H       
  29 H29           -1.0678     3.0846    -0.1215 H       
  30 H30           -4.3372    -0.1906     0.3902 H       
  31 H31            1.2241     2.9563    -0.5731 H       
  32 H32            1.9558     1.4748    -1.2349 H       
  33 H33            0.8212     1.8824    -3.4017 H       
  34 H34            0.0895     3.3639    -2.7399 H       
  35 H35           -2.2328    -2.4182     1.5491 H       
  36 H36           -2.3238    -4.8678     1.3338 H       
  37 H37           -5.0943    -4.4832    -1.8975 H       
  38 H38           -5.0108    -2.0336    -1.6792 H       
  39 H39           -4.9788    -5.1588     1.7010 H       
  40 H40           -5.9803    -6.5305     3.5153 H       
  41 H41           -5.8573    -8.9848     3.3783 H       
  42 H42           -3.8229    -8.7962    -0.2337 H       
  43 H43            2.3498     4.3057    -2.3491 H       
  44 H44            3.0815     2.8242    -3.0110 H       
  45 H45            1.2152     4.7133    -4.5160 H       
  46 H46            2.9794     4.6101    -4.7281 H       
  47 H47            1.9469     3.2318    -5.1778 H       
@<TRIPOS>BOND
   1    1    2 am
   2    1   11 1
   3    1    6 1
   4    2    3 1
   5    2    7 2
   6    3    4 2
   7    3    8 1
   8    4    5 1
   9    4   10 1
  10    5    6 2
  11    5   28 1
  12    6   29 1
  13    8    9 3
  14   10   13 1
  15   10   30 1
  16   11   12 1
  17   11   31 1
  18   11   32 1
  19   12   26 1
  20   12   33 1
  21   12   34 1
  22   13   14 ar
  23   13   18 ar
  24   14   15 ar
  25   14   35 1
  26   15   16 ar
  27   15   36 1
  28   16   17 ar
  29   16   19 1
  30   17   18 ar
  31   17   37 1
  32   18   38 1
  33   19   20 1
  34   20   21 ar
  35   20   25 ar
  36   21   22 ar
  37   21   39 1
  38   22   23 ar
  39   22   40 1
  40   23   24 ar
  41   23   41 1
  42   24   25 ar
  43   25   42 1
  44   26   27 1
  45   26   43 1
  46   26   44 1
  47   27   45 1
  48   27   46 1
  49   27   47 1

#	End of record

