#	Name: ASD09610072
#	Creating user name:	WinNT
#	Creation time:	15. 06. 2019 21:22

#	Modifying user name:	WinNT
#	Modification time:	15. 06. 2019 21:22

#	Program:	/corina/corina34_cracker 3.40 0067  02.08.2006

@<TRIPOS>MOLECULE
ASD09610072
  42   44    0    0    0
SMALL
NO_CHARGES


@<TRIPOS>ATOM
   1 N1            -0.0195     1.4453    -0.1972 N.pl3   
   2 N2            -0.0095     0.2309    -0.8922 N.2     
   3 C3             1.2274    -0.1162    -1.1187 C.2     
   4 C4             2.0680     0.8777    -0.5691 C.2     
   5 C5             1.2505     1.8353    -0.0028 C.2     
   6 C6             3.5418     0.8898    -0.5955 C.2     
   7 O7             4.1479    -0.0193    -1.1293 O.2     
   8 N8             4.2176     1.9085    -0.0280 N.am    
   9 C9             6.3596     3.0419    -0.0596 C.ar    
  10 C10            5.6114     1.8639     0.0510 C.ar    
  11 C11            6.2598     0.6523     0.2397 C.ar    
  12 C12            7.6387     0.6104     0.3179 C.ar    
  13 C13            8.3803     1.7735     0.2089 C.ar    
  14 C14            7.7486     2.9866     0.0214 C.ar    
  15 C15            5.6765     4.3417    -0.2676 C.ar    
  16 C16            5.9886     5.4332     0.5410 C.ar    
  17 C17            5.3501     6.6405     0.3425 C.ar    
  18 C18            4.4020     6.7685    -0.6565 C.ar    
  19 C19            4.0882     5.6886    -1.4620 C.ar    
  20 C20            4.7242     4.4779    -1.2762 C.ar    
  21 C21            3.7079     8.0893    -0.8679 C.3     
  22 F22            4.4362     8.8578    -1.7823 F       
  23 F23            2.4208     7.8649    -1.3683 F       
  24 F24            3.6222     8.7713     0.3505 F       
  25 C25           -1.2144     2.1720     0.2392 C.3     
  26 C26            1.6805    -1.3597    -1.8395 C.3     
  27 F27            0.7186    -1.7260    -2.7871 F       
  28 F28            2.8971    -1.1087    -2.4830 F       
  29 H29            1.5732     2.7330     0.5035 H       
  30 H30            3.7360     2.6727     0.3257 H       
  31 H31            5.6865    -0.2589     0.3258 H       
  32 H32            8.1401    -0.3347     0.4653 H       
  33 H33            9.4577     1.7322     0.2712 H       
  34 H34            8.3313     3.8920    -0.0635 H       
  35 H35            6.7284     5.3343     1.3215 H       
  36 H36            5.5909     7.4869     0.9687 H       
  37 H37            3.3469     5.7941    -2.2403 H       
  38 H38            4.4817     3.6367    -1.9085 H       
  39 H39           -1.4950     1.8422     1.2395 H       
  40 H40           -1.0038     3.2413     0.2549 H       
  41 H41           -2.0333     1.9730    -0.4521 H       
  42 H42            1.8096    -2.1693    -1.1212 H       
@<TRIPOS>BOND
   1    1    2 1
   2    1    5 1
   3    1   25 1
   4    2    3 2
   5    3    4 1
   6    3   26 1
   7    4    5 2
   8    4    6 1
   9    5   29 1
  10    6    7 2
  11    6    8 am
  12    8   10 1
  13    8   30 1
  14    9   10 ar
  15    9   14 ar
  16    9   15 1
  17   10   11 ar
  18   11   12 ar
  19   11   31 1
  20   12   13 ar
  21   12   32 1
  22   13   14 ar
  23   13   33 1
  24   14   34 1
  25   15   16 ar
  26   15   20 ar
  27   16   17 ar
  28   16   35 1
  29   17   18 ar
  30   17   36 1
  31   18   19 ar
  32   18   21 1
  33   19   20 ar
  34   19   37 1
  35   20   38 1
  36   21   22 1
  37   21   23 1
  38   21   24 1
  39   25   39 1
  40   25   40 1
  41   25   41 1
  42   26   27 1
  43   26   28 1
  44   26   42 1

#	End of record

