#	Name: ASD01880436
#	Creating user name:	WinNT
#	Creation time:	15. 06. 2019 19:40

#	Modifying user name:	WinNT
#	Modification time:	15. 06. 2019 19:40

#	Program:	/corina/corina34_cracker 3.40 0067  02.08.2006

@<TRIPOS>MOLECULE
ASD01880436
  24   23    0    0    0
SMALL
NO_CHARGES


@<TRIPOS>ATOM
   1 O1            -0.0161     1.3381     0.0094 O.3     
   2 C2             0.0021    -0.0041     0.0020 C.2     
   3 O3             1.0565    -0.5939    -0.0112 O.2     
   4 C4            -1.2926    -0.7753     0.0102 C.3     
   5 C5            -1.0560    -2.1627     0.6102 C.3     
   6 C6            -2.3705    -2.9456     0.6185 C.3     
   7 P7            -2.0886    -4.5988     1.3334 P.3     
   8 O8            -1.4765    -4.4589     2.6736 O.2     
   9 O9            -3.4936    -5.3740     1.4634 O.3     
  10 O10           -1.1004    -5.4357     0.3768 O.3     
  11 N11           -2.2862    -0.0554     0.8180 N.3     
  12 C12           -1.8088    -0.9205    -1.4227 C.3     
  13 H13            0.8394     1.7888     0.0037 H       
  14 H14           -0.3188    -2.6968     0.0108 H       
  15 H15           -0.6883    -2.0592     1.6310 H       
  16 H16           -3.1077    -2.4115     1.2179 H       
  17 H17           -2.7382    -3.0491    -0.4023 H       
  18 H18           -3.4194    -6.2627     1.8373 H       
  19 H19           -1.4382    -5.5664    -0.5198 H       
  20 H20           -3.1820    -0.5188     0.7868 H       
  21 H21           -1.9685     0.0534     1.7695 H       
  22 H22           -1.0716    -1.4546    -2.0221 H       
  23 H23           -2.7453    -1.4783    -1.4168 H       
  24 H24           -1.9774     0.0679    -1.8501 H       
@<TRIPOS>BOND
   1    1    2 1
   2    1   13 1
   3    2    3 2
   4    2    4 1
   5    4    5 1
   6    4   11 1
   7    4   12 1
   8    5    6 1
   9    5   14 1
  10    5   15 1
  11    6    7 1
  12    6   16 1
  13    6   17 1
  14    7    8 2
  15    7    9 1
  16    7   10 1
  17    9   18 1
  18   10   19 1
  19   11   20 1
  20   11   21 1
  21   12   22 1
  22   12   23 1
  23   12   24 1

#	End of record

