#	Name: ASD03710003
#	Creating user name:	WinNT
#	Creation time:	15. 06. 2019 20:43

#	Modifying user name:	WinNT
#	Modification time:	15. 06. 2019 20:43

#	Program:	/corina/corina34_cracker 3.40 0067  02.08.2006

@<TRIPOS>MOLECULE
ASD03710003
  54   54    0    0    0
SMALL
NO_CHARGES


@<TRIPOS>ATOM
   1 P1            -0.0198     1.6058     0.0109 P.3     
   2 P2             0.1212    -2.3768     4.2713 P.3     
   3 P3            -3.4664    -3.4762     1.1210 P.3     
   4 P4             0.8102    -5.8631     0.9896 P.3     
   5 P5             2.2639    -3.3760    -2.9734 P.3     
   6 P6             4.2569    -0.7811    -0.1206 P.3     
   7 C7             0.7093    -0.7782     0.9729 C.3     
   8 C8            -0.2748    -1.6784     1.7226 C.3     
   9 C9            -0.9675    -2.6145     0.7302 C.3     
  10 C10            0.0811    -3.4791     0.0276 C.3     
  11 C11            1.0652    -2.5789    -0.7222 C.3     
  12 C12            1.7579    -1.6429     0.2702 C.3     
  13 O13            0.0021    -0.0041     0.0020 O.3     
  14 O14            0.4325    -2.4525     2.6935 O.3     
  15 O15           -1.8866    -3.4553     1.4305 O.3     
  16 O16            0.7884    -4.2532     0.9984 O.3     
  17 O17            2.0446    -3.3865    -1.3784 O.3     
  18 O18            2.6770    -0.8021    -0.4300 O.3     
  19 O19            1.3687     2.1180     0.0004 O.2     
  20 O20            0.2201    -0.9721     4.7268 O.2     
  21 O21           -3.6839    -3.7517    -0.3167 O.2     
  22 O22            1.2815    -6.3428    -0.3288 O.2     
  23 O23            0.9808    -3.6701    -3.6497 O.2     
  24 O24            4.4744    -0.5056     1.3172 O.2     
  25 O25           -0.7984     2.1391    -1.2935 O.3     
  26 O26           -1.3650    -2.9287     4.5522 O.3     
  27 O27           -4.1703    -4.6266     2.0004 O.3     
  28 O28            1.8041    -6.3926     2.1401 O.3     
  29 O29            2.7928    -1.9264    -3.4328 O.3     
  30 O30            4.8963    -2.2102    -0.4959 O.3     
  31 O31           -0.7733     2.1250     1.3355 O.3     
  32 O32            1.1884    -3.2772     5.0727 O.3     
  33 O33           -4.1058    -2.0471     1.4963 O.3     
  34 O34           -0.6747    -6.4214     1.2644 O.3     
  35 O35            3.3502    -4.4951    -3.3731 O.3     
  36 O36            4.9607     0.3693    -0.9999 O.3     
  37 H37            1.2028    -0.1113     1.6799 H       
  38 H38           -1.0218    -1.0624     2.2232 H       
  39 H39           -1.5069    -2.0240    -0.0103 H       
  40 H40           -0.4124    -4.1460    -0.6794 H       
  41 H41            0.5257    -1.9884    -1.4627 H       
  42 H42            2.2974    -2.2333     1.0108 H       
  43 H43           -0.8503     3.1028    -1.3539 H       
  44 H44           -1.5023    -3.8457     4.2780 H       
  45 H45           -5.1251    -4.6967     1.8646 H       
  46 H46            1.8668    -7.3562     2.1928 H       
  47 H47            3.6318    -1.6673    -3.0277 H       
  48 H48            4.7907    -2.4565    -1.4250 H       
  49 H49           -1.6903     1.8268     1.4088 H       
  50 H50            1.0610    -3.2785     6.0313 H       
  51 H51           -4.0003    -1.8008     2.4255 H       
  52 H52           -1.0478    -6.1458     2.1128 H       
  53 H53            3.5325    -4.5453    -4.3214 H       
  54 H54            5.9156     0.4394    -0.8641 H       
@<TRIPOS>BOND
   1    1   13 1
   2    1   19 2
   3    1   25 1
   4    1   31 1
   5    2   14 1
   6    2   20 2
   7    2   26 1
   8    2   32 1
   9    3   15 1
  10    3   21 2
  11    3   27 1
  12    3   33 1
  13    4   16 1
  14    4   22 2
  15    4   28 1
  16    4   34 1
  17    5   17 1
  18    5   23 2
  19    5   29 1
  20    5   35 1
  21    6   18 1
  22    6   24 2
  23    6   30 1
  24    6   36 1
  25    7    8 1
  26    7   12 1
  27    7   13 1
  28    7   37 1
  29    8    9 1
  30    8   14 1
  31    8   38 1
  32    9   10 1
  33    9   15 1
  34    9   39 1
  35   10   11 1
  36   10   16 1
  37   10   40 1
  38   11   12 1
  39   11   17 1
  40   11   41 1
  41   12   18 1
  42   12   42 1
  43   25   43 1
  44   26   44 1
  45   27   45 1
  46   28   46 1
  47   29   47 1
  48   30   48 1
  49   31   49 1
  50   32   50 1
  51   33   51 1
  52   34   52 1
  53   35   53 1
  54   36   54 1

#	End of record

