#	Name: ASD01901279
#	Creating user name:	WinNT
#	Creation time:	15. 06. 2019 19:53

#	Modifying user name:	WinNT
#	Modification time:	15. 06. 2019 19:53

#	Program:	/corina/corina34_cracker 3.40 0067  02.08.2006

@<TRIPOS>MOLECULE
ASD01901279
  48   51    0    0    0
SMALL
NO_CHARGES


@<TRIPOS>ATOM
   1 C1            -0.0158     1.3123     0.0093 C.ar    
   2 N2             0.0021    -0.0041     0.0020 N.ar    
   3 C3             1.1316    -0.6859    -0.0125 C.ar    
   4 C4             2.3557    -0.0416    -0.0203 C.ar    
   5 C5             2.3936     1.3414    -0.0132 C.ar    
   6 C6             1.1781     2.0387     0.0018 C.ar    
   7 C7             1.1598     3.4705     0.0092 C.1     
   8 C8             1.1447     4.6444     0.0153 C.1     
   9 C9             1.1264     6.0763     0.0227 C.ar    
  10 C10           -0.1060     8.1403     0.0505 C.ar    
  11 C11           -0.0918     6.7612     0.0434 C.ar    
  12 C12            2.3271     6.7926     0.0151 C.ar    
  13 C13            2.3051     8.1719     0.0223 C.ar    
  14 C14            1.0895     8.8499     0.0371 C.ar    
  15 N15            1.0707    10.2509     0.0439 N.am    
  16 N16            1.0209    12.2524    -1.2044 N.am    
  17 C17            1.0401    10.9096    -1.1244 C.2     
  18 C18            1.0784    10.9029     1.2260 C.2     
  19 C19            0.9877    12.9027    -2.5167 C.3     
  20 O20            1.1017    10.2881     2.2749 O.2     
  21 O21            1.0296    10.2652    -2.1555 O.2     
  22 C22            2.2276    12.4993    -3.3173 C.3     
  23 C23           -0.2703    12.4665    -3.2704 C.3     
  24 Cl24          -1.6188     8.9914     0.0762 Cl      
  25 N25            1.0353    14.4747     1.5845 N.pl3   
  26 C26            1.0197    14.3530     0.2304 C.2     
  27 C27            1.0584    12.3755     1.2166 C.2     
  28 N28            1.0586    13.3118     2.1365 N.2     
  29 C29            1.0320    13.0296    -0.0462 C.2     
  30 C30            1.0292    15.7468     2.3112 C.3     
  31 F31            3.4645     8.8653     0.0154 F       
  32 H32           -0.9608     1.8351     0.0166 H       
  33 H33            1.1000    -1.7654    -0.0180 H       
  34 H34            3.2725    -0.6123    -0.0314 H       
  35 H35            3.3354     1.8699    -0.0187 H       
  36 H36           -1.0211     6.2110     0.0535 H       
  37 H37            3.2704     6.2668     0.0040 H       
  38 H38            0.9760    13.9848    -2.3858 H       
  39 H39            3.1238    12.8101    -2.7804 H       
  40 H40            2.2393    11.4173    -3.4482 H       
  41 H41            2.2029    12.9832    -4.2937 H       
  42 H42           -1.1535    12.7539    -2.7000 H       
  43 H43           -0.2950    12.9504    -4.2468 H       
  44 H44           -0.2585    11.3844    -3.4013 H       
  45 H45            0.9992    15.1596    -0.4874 H       
  46 H46            0.0002    16.0500     2.5043 H       
  47 H47            1.5564    15.6271     3.2576 H       
  48 H48            1.5264    16.5098     1.7122 H       
@<TRIPOS>BOND
   1    1    2 ar
   2    1    6 ar
   3    1   32 1
   4    2    3 ar
   5    3    4 ar
   6    3   33 1
   7    4    5 ar
   8    4   34 1
   9    5    6 ar
  10    5   35 1
  11    6    7 1
  12    7    8 3
  13    8    9 1
  14    9   12 ar
  15    9   11 ar
  16   10   11 ar
  17   10   14 ar
  18   10   24 1
  19   11   36 1
  20   12   13 ar
  21   12   37 1
  22   13   14 ar
  23   13   31 1
  24   14   15 1
  25   15   18 am
  26   15   17 am
  27   16   17 am
  28   16   29 1
  29   16   19 1
  30   17   21 2
  31   18   27 1
  32   18   20 2
  33   19   22 1
  34   19   23 1
  35   19   38 1
  36   22   39 1
  37   22   40 1
  38   22   41 1
  39   23   42 1
  40   23   43 1
  41   23   44 1
  42   25   26 1
  43   25   28 1
  44   25   30 1
  45   26   29 2
  46   26   45 1
  47   27   28 2
  48   27   29 1
  49   30   46 1
  50   30   47 1
  51   30   48 1

#	End of record

