#	Name: ASD09740693
#	Creating user name:	WinNT
#	Creation time:	15. 06. 2019 21:23

#	Modifying user name:	WinNT
#	Modification time:	15. 06. 2019 21:23

#	Program:	/corina/corina34_cracker 3.40 0067  02.08.2006

@<TRIPOS>MOLECULE
ASD09740693
  54   57    0    0    0
SMALL
NO_CHARGES


@<TRIPOS>ATOM
   1 C1            -1.2731     4.0446     1.1243 C.2     
   2 C2            -1.4780     2.9069     1.7405 C.2     
   3 S3             0.3235     4.4242     0.4830 S.o2    
   4 O4             0.6361     5.7348     0.9345 O.2     
   5 O5             1.1424     3.2941     0.7504 O.2     
   6 N6             0.1804     4.5188    -1.1641 N.am    
   7 C7            -0.6342     5.5754    -1.7691 C.3     
   8 C8             0.2545     6.5319    -2.5922 C.3     
   9 C9             0.1824     5.9154    -4.0055 C.3     
  10 C10           -1.1386     5.1779    -4.0483 C.ar    
  11 C11           -1.8797     4.7091    -5.1372 C.ar    
  12 C12           -3.0881     4.0470    -4.9226 C.ar    
  13 C13           -3.5464     3.8580    -3.6350 C.ar    
  14 C14           -2.8103     4.3238    -2.5619 C.ar    
  15 C15           -1.6075     4.9827    -2.7659 C.ar    
  16 S16           -2.1849     4.3926    -7.9968 S.3     
  17 C17           -1.3833     4.9153    -6.5142 C.2     
  18 N18           -0.2740     5.5170    -6.8493 N.2     
  19 N19           -0.0039     5.6051    -8.0780 N.2     
  20 C20           -0.8541     5.0877    -8.9240 C.2     
  21 C21           -0.7246     5.0854   -10.3964 C.ar    
  22 C22            0.3847     5.6735   -10.9987 C.ar    
  23 C23            0.5015     5.6684   -12.3878 C.ar    
  24 C24           -0.4994     5.0708   -13.1686 C.ar    
  25 C25           -1.6003     4.4879   -12.5576 C.ar    
  26 C26           -1.7129     4.4879   -11.1839 C.ar    
  27 O27           -0.3910     5.0634   -14.5209 O.3     
  28 C28           -1.4274     4.4041   -15.2512 C.3     
  29 C29           -2.6081     5.3595   -15.4361 C.3     
  30 C30           -0.8952     3.9799   -16.6214 C.3     
  31 C31            1.6387     6.2712   -13.0156 C.1     
  32 N32            2.5408     6.7494   -13.5135 N.1     
  33 H33           -2.0840     4.7480     1.0055 H       
  34 H34           -0.6682     2.2016     1.8554 H       
  35 H35           -2.4566     2.6742     2.1336 H       
  36 H36            0.6360     3.8745    -1.7283 H       
  37 H37           -1.1717     6.1278    -0.9983 H       
  38 H38           -0.1556     7.5418    -2.5885 H       
  39 H39            1.2786     6.5269    -2.2190 H       
  40 H40            0.2024     6.7000    -4.7619 H       
  41 H41            1.0085     5.2209    -4.1578 H       
  42 H42           -3.6634     3.6838    -5.7614 H       
  43 H43           -4.4819     3.3457    -3.4653 H       
  44 H44           -3.1749     4.1733    -1.5565 H       
  45 H45            1.1515     6.1321   -10.3920 H       
  46 H46           -2.3696     4.0285   -13.1605 H       
  47 H47           -2.5703     4.0285   -10.7144 H       
  48 H48           -1.7560     3.5229   -14.7003 H       
  49 H49           -2.9872     5.6618   -14.4599 H       
  50 H50           -2.2795     6.2408   -15.9870 H       
  51 H51           -3.3986     4.8567   -15.9931 H       
  52 H52           -0.0541     3.2992   -16.4897 H       
  53 H53           -1.6857     3.4770   -17.1785 H       
  54 H54           -0.5666     4.8611   -17.1723 H       
@<TRIPOS>BOND
   1    1    2 2
   2    1    3 1
   3    1   33 1
   4    2   34 1
   5    2   35 1
   6    3    4 2
   7    3    5 2
   8    3    6 am
   9    6    7 1
  10    6   36 1
  11    7    8 1
  12    7   15 1
  13    7   37 1
  14    8    9 1
  15    8   38 1
  16    8   39 1
  17    9   10 1
  18    9   40 1
  19    9   41 1
  20   10   11 ar
  21   10   15 ar
  22   11   12 ar
  23   11   17 1
  24   12   13 ar
  25   12   42 1
  26   13   14 ar
  27   13   43 1
  28   14   15 ar
  29   14   44 1
  30   16   17 1
  31   16   20 1
  32   17   18 2
  33   18   19 1
  34   19   20 2
  35   20   21 1
  36   21   22 ar
  37   21   26 ar
  38   22   23 ar
  39   22   45 1
  40   23   24 ar
  41   23   31 1
  42   24   25 ar
  43   24   27 1
  44   25   26 ar
  45   25   46 1
  46   26   47 1
  47   27   28 1
  48   28   29 1
  49   28   30 1
  50   28   48 1
  51   29   49 1
  52   29   50 1
  53   29   51 1
  54   30   52 1
  55   30   53 1
  56   30   54 1
  57   31   32 3

#	End of record

