#	Name: ASD00170147
#	Creating user name:	WinNT
#	Creation time:	15. 06. 2019 18:31

#	Modifying user name:	WinNT
#	Modification time:	15. 06. 2019 18:31

#	Program:	/corina/corina34_cracker 3.40 0067  02.08.2006

@<TRIPOS>MOLECULE
ASD00170147
  23   24    0    0    0
SMALL
NO_CHARGES


@<TRIPOS>ATOM
   1 C1             0.0041     1.3222     0.1976 C.2     
   2 C2             0.0143     0.0003     0.1261 C.2     
   3 C3             1.3489    -0.5571     0.0605 C.2     
   4 C4             2.3288     0.4084     0.0864 C.2     
   5 S5             1.6373     1.9629     0.1886 S.3     
   6 N6             3.6841     0.1534     0.0365 N.pl3   
   7 C7             1.6254    -1.9907    -0.0242 C.2     
   8 C8             0.5188    -2.9656     0.0923 C.ar    
   9 O9             2.7665    -2.3819    -0.1905 O.2     
  10 C10            0.5787    -4.1787    -0.5946 C.ar    
  11 C11           -0.4577    -5.0843    -0.4816 C.ar    
  12 C12           -1.5542    -4.7898     0.3109 C.ar    
  13 C13           -1.6188    -3.5882     0.9938 C.ar    
  14 C14           -0.5869    -2.6782     0.8944 C.ar    
  15 Cl15          -0.3860    -6.5943    -1.3350 Cl      
  16 H16           -0.8901     1.9257     0.2499 H       
  17 H17           -0.8825    -0.6015     0.1179 H       
  18 H18            4.0038    -0.7605    -0.0213 H       
  19 H19            4.3170     0.8882     0.0592 H       
  20 H20            1.4334    -4.4087    -1.2135 H       
  21 H21           -2.3626    -5.5009     0.3961 H       
  22 H22           -2.4772    -3.3641     1.6098 H       
  23 H23           -0.6390    -1.7408     1.4281 H       
@<TRIPOS>BOND
   1    1    2 2
   2    1    5 1
   3    1   16 1
   4    2    3 1
   5    2   17 1
   6    3    4 2
   7    3    7 1
   8    4    5 1
   9    4    6 1
  10    6   18 1
  11    6   19 1
  12    7    8 1
  13    7    9 2
  14    8   10 ar
  15    8   14 ar
  16   10   11 ar
  17   10   20 1
  18   11   12 ar
  19   11   15 1
  20   12   13 ar
  21   12   21 1
  22   13   14 ar
  23   13   22 1
  24   14   23 1

#	End of record

