#	Name: ASD01880781
#	Creating user name:	WinNT
#	Creation time:	15. 06. 2019 19:41

#	Modifying user name:	WinNT
#	Modification time:	15. 06. 2019 19:41

#	Program:	/corina/corina34_cracker 3.40 0067  02.08.2006

@<TRIPOS>MOLECULE
ASD01880781
  52   55    0    0    0
SMALL
NO_CHARGES


@<TRIPOS>ATOM
   1 N1             0.0645     1.3751    -0.6397 N.ar    
   2 C2             0.1103     0.0791    -0.8729 C.ar    
   3 N3             1.2172    -0.6174    -0.7103 N.ar    
   4 C4             2.3355    -0.0351    -0.3031 C.ar    
   5 C5             2.3333     1.3233    -0.0470 C.ar    
   6 C6             1.1452     2.0292    -0.2289 C.ar    
   7 C7             3.5841     2.0234     0.4182 C.3     
   8 O8             4.3203     2.4867    -0.7155 O.3     
   9 C9             5.4820     3.1437    -0.4692 C.ar    
  10 C10            6.2483     3.6215    -1.5279 C.ar    
  11 C11            7.4229     4.2863    -1.2774 C.ar    
  12 C12            7.8559     4.4873     0.0375 C.ar    
  13 C13            7.0823     4.0057     1.0971 C.ar    
  14 C14            5.9022     3.3438     0.8403 C.ar    
  15 C15            8.4639     4.9156    -2.1693 C.3     
  16 N16            9.4873     5.4705    -1.2762 N.am    
  17 C17            9.1326     5.2212    -0.0040 C.2     
  18 O18            9.7740     5.5543     0.9737 O.2     
  19 C19            3.5940    -0.8437    -0.1208 C.3     
  20 C20            7.5365     4.2144     2.5188 C.3     
  21 O21            1.0937     3.3624     0.0088 O.3     
  22 C22           -0.1134     3.9802    -0.0809 C.ar    
  23 C23           -1.0446     3.8374     0.9377 C.ar    
  24 C24           -2.2707     4.4669     0.8443 C.ar    
  25 C25           -2.5703     5.2388    -0.2631 C.ar    
  26 C26           -1.6441     5.3827    -1.2795 C.ar    
  27 C27           -0.4146     4.7596    -1.1886 C.ar    
  28 C28           10.4009     7.6768    -1.8044 C.3     
  29 C29           10.6970     6.1793    -1.7012 C.3     
  30 H30           -0.7841    -0.4265    -1.2061 H       
  31 H31            3.3132     2.8717     1.0469 H       
  32 H32            4.1980     1.3282     0.9908 H       
  33 H33            5.9195     3.4691    -2.5453 H       
  34 H34            5.3047     2.9722     1.6596 H       
  35 H35            8.9045     4.1612    -2.8211 H       
  36 H36            8.0156     5.7107    -2.7652 H       
  37 H37            4.1573    -0.8545    -1.0539 H       
  38 H38            4.2023    -0.3970     0.6656 H       
  39 H39            3.3328    -1.8647     0.1576 H       
  40 H40            7.1354     5.1560     2.8939 H       
  41 H41            7.1769     3.3935     3.1393 H       
  42 H42            8.6256     4.2446     2.5516 H       
  43 H43           -0.8112     3.2343     1.8027 H       
  44 H44           -2.9960     4.3558     1.6368 H       
  45 H45           -3.5296     5.7298    -0.3343 H       
  46 H46           -1.8807     5.9859    -2.1436 H       
  47 H47            0.3087     4.8726    -1.9826 H       
  48 H48           11.3009     8.2042    -2.1207 H       
  49 H49            9.6083     7.8410    -2.5344 H       
  50 H50           10.0827     8.0522    -0.8319 H       
  51 H51           11.4897     6.0151    -0.9712 H       
  52 H52           11.0153     5.8039    -2.6737 H       
@<TRIPOS>BOND
   1    1    2 ar
   2    1    6 ar
   3    2    3 ar
   4    2   30 1
   5    3    4 ar
   6    4    5 ar
   7    4   19 1
   8    5    6 ar
   9    5    7 1
  10    6   21 1
  11    7    8 1
  12    7   31 1
  13    7   32 1
  14    8    9 1
  15    9   10 ar
  16    9   14 ar
  17   10   11 ar
  18   10   33 1
  19   11   12 ar
  20   11   15 1
  21   12   13 ar
  22   12   17 1
  23   13   14 ar
  24   13   20 1
  25   14   34 1
  26   15   16 1
  27   15   35 1
  28   15   36 1
  29   16   17 am
  30   16   29 1
  31   17   18 2
  32   19   37 1
  33   19   38 1
  34   19   39 1
  35   20   40 1
  36   20   41 1
  37   20   42 1
  38   21   22 1
  39   22   23 ar
  40   22   27 ar
  41   23   24 ar
  42   23   43 1
  43   24   25 ar
  44   24   44 1
  45   25   26 ar
  46   25   45 1
  47   26   27 ar
  48   26   46 1
  49   27   47 1
  50   28   29 1
  51   28   48 1
  52   28   49 1
  53   28   50 1
  54   29   51 1
  55   29   52 1

#	End of record

