#	Name: ASD01912475
#	Creating user name:	WinNT
#	Creation time:	15. 06. 2019 19:59

#	Modifying user name:	WinNT
#	Modification time:	15. 06. 2019 19:59

#	Program:	/corina/corina34_cracker 3.40 0067  02.08.2006

@<TRIPOS>MOLECULE
ASD01912475
  37   39    0    0    0
SMALL
NO_CHARGES


@<TRIPOS>ATOM
   1 C1             0.7425     0.0866    -1.2305 C.ar    
   2 C2            -0.0111     0.0001    -0.0639 C.ar    
   3 C3             0.4382     0.6474     1.0779 C.ar    
   4 N4             1.5623     1.3361     1.0624 N.ar    
   5 C5             2.2995     1.4379    -0.0260 C.ar    
   6 C6             1.9173     0.8202    -1.2024 C.ar    
   7 O7            -1.1709    -0.7079    -0.0434 O.3     
   8 C8            -1.0944    -2.0587    -0.1437 C.ar    
   9 C9            -2.2459    -2.8304    -0.0390 C.ar    
  10 N10           -2.1726    -4.1454    -0.1360 N.ar    
  11 C11           -1.0059    -4.7319    -0.3331 C.ar    
  12 C12            0.1498    -3.9654    -0.4393 C.ar    
  13 N13            0.0779    -2.6434    -0.3471 N.ar    
  14 N14            1.3805    -4.5843    -0.6468 N.am    
  15 C15            2.4838    -3.8381    -0.8525 C.2     
  16 C16            3.7640    -4.4912    -1.1979 C.ar    
  17 C17            4.9084    -3.7213    -1.4115 C.ar    
  18 C18            6.1006    -4.3366    -1.7337 C.ar    
  19 C19            6.1639    -5.7139    -1.8453 C.ar    
  20 C20            5.0323    -6.4843    -1.6352 C.ar    
  21 C21            3.8349    -5.8812    -1.3062 C.ar    
  22 Cl22           5.1217    -8.2121    -1.7781 Cl      
  23 O23            2.4261    -2.6279    -0.7540 O.2     
  24 C24            3.5758     2.2382     0.0128 C.3     
  25 H25            0.4217    -0.4097    -2.1344 H       
  26 H26           -0.1389     0.5868     1.9887 H       
  27 H27            2.5274     0.9089    -2.0892 H       
  28 H28           -3.2016    -2.3539     0.1223 H       
  29 H29           -0.9491    -5.8076    -0.4117 H       
  30 H30            1.4434    -5.5522    -0.6432 H       
  31 H31            4.8607    -2.6458    -1.3252 H       
  32 H32            6.9864    -3.7415    -1.8996 H       
  33 H33            7.0996    -6.1904    -2.0978 H       
  34 H34            2.9529    -6.4826    -1.1424 H       
  35 H35            4.4038     1.5881     0.2957 H       
  36 H36            3.7681     2.6635    -0.9722 H       
  37 H37            3.4788     3.0417     0.7429 H       
@<TRIPOS>BOND
   1    1    2 ar
   2    1    6 ar
   3    1   25 1
   4    2    3 ar
   5    2    7 1
   6    3    4 ar
   7    3   26 1
   8    4    5 ar
   9    5    6 ar
  10    5   24 1
  11    6   27 1
  12    7    8 1
  13    8    9 ar
  14    8   13 ar
  15    9   10 ar
  16    9   28 1
  17   10   11 ar
  18   11   12 ar
  19   11   29 1
  20   12   13 ar
  21   12   14 1
  22   14   15 am
  23   14   30 1
  24   15   16 1
  25   15   23 2
  26   16   17 ar
  27   16   21 ar
  28   17   18 ar
  29   17   31 1
  30   18   19 ar
  31   18   32 1
  32   19   20 ar
  33   19   33 1
  34   20   21 ar
  35   20   22 1
  36   21   34 1
  37   24   35 1
  38   24   36 1
  39   24   37 1

#	End of record

