#	Name: ASD02408115
#	Creating user name:	WinNT
#	Creation time:	15. 06. 2019 20:21

#	Modifying user name:	WinNT
#	Modification time:	15. 06. 2019 20:21

#	Program:	/corina/corina34_cracker 3.40 0067  02.08.2006

@<TRIPOS>MOLECULE
ASD02408115
  43   45    0    0    0
SMALL
NO_CHARGES


@<TRIPOS>ATOM
   1 C1             2.3192     5.9813    -4.1953 C.2     
   2 C2             1.1380     6.5975    -4.2598 C.2     
   3 C3             2.8585     5.3942    -2.9164 C.3     
   4 C4             2.4087     3.9613    -2.7926 C.2     
   5 N5             2.7864     3.2513    -1.7118 N.am    
   6 N6             1.6616     3.4509    -3.7335 N.2     
   7 C7             1.2321     2.1838    -3.6764 C.2     
   8 C8             1.5933     1.3846    -2.5791 C.2     
   9 C9             2.4014     1.9658    -1.5683 C.2     
  10 N10            0.4467     1.6713    -4.6796 N.pl3   
  11 C11           -0.6836     0.7860    -4.3672 C.3     
  12 O12            2.7438     1.3175    -0.5945 O.2     
  13 S13            0.8486     7.1472    -5.9053 S.3     
  14 C14            2.3937     6.4898    -6.4286 C.2     
  15 C15            3.0096     5.9167    -5.3934 C.2     
  16 C16           -1.9479     1.3505    -5.0227 C.3     
  17 C17           -1.6977     1.5459    -6.5198 C.3     
  18 C18           -0.5598     2.5491    -6.7218 C.3     
  19 C19            0.7169     2.0027    -6.0852 C.3     
  20 C20           -3.1073     0.3725    -4.8221 C.3     
  21 C21           -2.2973     2.6959    -4.3834 C.3     
  22 C22            1.1543     0.0251    -2.4810 C.1     
  23 N23            0.8060    -1.0534    -2.4033 N.1     
  24 H24            0.4624     6.7372    -3.4289 H       
  25 H25            3.9477     5.4333    -2.9296 H       
  26 H26            2.4846     5.9670    -2.0677 H       
  27 H27            3.3393     3.6671    -1.0319 H       
  28 H28           -0.4844    -0.2123    -4.7570 H       
  29 H29           -0.8223     0.7378    -3.2871 H       
  30 H30            2.7823     6.5386    -7.4350 H       
  31 H31            3.9772     5.4451    -5.4816 H       
  32 H32           -1.4246     0.5916    -6.9700 H       
  33 H33           -2.6037     1.9244    -6.9930 H       
  34 H34           -0.3977     2.7056    -7.7883 H       
  35 H35           -0.8218     3.4963    -6.2504 H       
  36 H36            1.5034     2.7553    -6.1398 H       
  37 H37            1.0322     1.1028    -6.6132 H       
  38 H38           -3.2832     0.2314    -3.7557 H       
  39 H39           -4.0066     0.7746    -5.2886 H       
  40 H40           -2.8580    -0.5852    -5.2790 H       
  41 H41           -1.4714     3.3923    -4.5280 H       
  42 H42           -3.1970     3.0971    -4.8501 H       
  43 H43           -2.4726     2.5567    -3.3166 H       
@<TRIPOS>BOND
   1    1    2 2
   2    1    3 1
   3    1   15 1
   4    2   13 1
   5    2   24 1
   6    3    4 1
   7    3   25 1
   8    3   26 1
   9    4    5 1
  10    4    6 2
  11    5    9 am
  12    5   27 1
  13    6    7 1
  14    7    8 2
  15    7   10 1
  16    8    9 1
  17    8   22 1
  18    9   12 2
  19   10   11 1
  20   10   19 1
  21   11   16 1
  22   11   28 1
  23   11   29 1
  24   13   14 1
  25   14   15 2
  26   14   30 1
  27   15   31 1
  28   16   17 1
  29   16   20 1
  30   16   21 1
  31   17   18 1
  32   17   32 1
  33   17   33 1
  34   18   19 1
  35   18   34 1
  36   18   35 1
  37   19   36 1
  38   19   37 1
  39   20   38 1
  40   20   39 1
  41   20   40 1
  42   21   41 1
  43   21   42 1
  44   21   43 1
  45   22   23 3

#	End of record

