#	Name: ASD03731676
#	Creating user name:	WinNT
#	Creation time:	15. 06. 2019 20:46

#	Modifying user name:	WinNT
#	Modification time:	15. 06. 2019 20:46

#	Program:	/corina/corina34_cracker 3.40 0067  02.08.2006

@<TRIPOS>MOLECULE
ASD03731676
  40   41    0    0    0
SMALL
NO_CHARGES


@<TRIPOS>ATOM
   1 C1            -0.1360     1.4671     0.0332 C.2     
   2 C2            -0.0850    -0.0063     0.0191 C.ar    
   3 C3             1.1403    -0.6649    -0.1384 C.ar    
   4 C4             1.1829    -2.0445    -0.1505 C.ar    
   5 C5             0.0130    -2.7784    -0.0073 C.ar    
   6 C6            -1.2080    -2.1270     0.1492 C.ar    
   7 C7            -1.2595    -0.7502     0.1688 C.ar    
   8 O8             0.8872     2.1122    -0.0920 O.2     
   9 N9            -1.3174     2.0991     0.1795 N.am    
  10 S10           -1.3747     3.7541     0.1954 S.o2    
  11 O11           -2.7499     4.0552     0.3891 O.2     
  12 O12           -0.3998     4.1292     1.1587 O.2     
  13 C13           -0.8448     4.2413    -1.4697 C.3     
  14 O14            0.0593    -4.1348    -0.0202 O.3     
  15 C15           -0.1522    -4.7697    -1.2043 C.ar    
  16 C16           -0.0459    -6.1556    -1.2809 C.ar    
  17 C17           -0.2619    -6.7985    -2.4887 C.ar    
  18 C18           -0.5829    -6.0622    -3.6167 C.ar    
  19 C19           -0.6879    -4.6842    -3.5396 C.ar    
  20 C20           -0.4792    -4.0386    -2.3347 C.ar    
  21 C21           -0.1472    -8.2986    -2.5753 C.3     
  22 O22            0.2699    -6.8769    -0.1723 O.3     
  23 C23           -0.8165    -7.3314     0.6372 C.3     
  24 F24           -0.7935    -6.6898    -4.7944 F       
  25 F25           -2.3432    -2.8463     0.2877 F       
  26 F26            2.2789     0.0486    -0.2788 F       
  27 H27            2.1275    -2.5538    -0.2720 H       
  28 H28           -2.2063    -0.2462     0.2950 H       
  29 H29           -2.1341     1.5846     0.2754 H       
  30 H30           -1.5271     3.8176    -2.2066 H       
  31 H31           -0.8528     5.3284    -1.5499 H       
  32 H32            0.1637     3.8709    -1.6530 H       
  33 H33           -0.9381    -4.1125    -4.4211 H       
  34 H34           -0.5664    -2.9638    -2.2759 H       
  35 H35           -1.1180    -8.7497    -2.3699 H       
  36 H36            0.1803    -8.5808    -3.5759 H       
  37 H37            0.5792    -8.6503    -1.8426 H       
  38 H38           -0.4268    -7.8923     1.4867 H       
  39 H39           -1.3846    -6.4739     0.9977 H       
  40 H40           -1.4668    -7.9749     0.0445 H       
@<TRIPOS>BOND
   1    1    2 1
   2    1    8 2
   3    1    9 am
   4    2    3 ar
   5    2    7 ar
   6    3    4 ar
   7    3   26 1
   8    4    5 ar
   9    4   27 1
  10    5    6 ar
  11    5   14 1
  12    6    7 ar
  13    6   25 1
  14    7   28 1
  15    9   10 am
  16    9   29 1
  17   10   11 2
  18   10   12 2
  19   10   13 1
  20   13   30 1
  21   13   31 1
  22   13   32 1
  23   14   15 1
  24   15   16 ar
  25   15   20 ar
  26   16   17 ar
  27   16   22 1
  28   17   18 ar
  29   17   21 1
  30   18   19 ar
  31   18   24 1
  32   19   20 ar
  33   19   33 1
  34   20   34 1
  35   21   35 1
  36   21   36 1
  37   21   37 1
  38   22   23 1
  39   23   38 1
  40   23   39 1
  41   23   40 1

#	End of record

