#	Name: ASD01510040
#	Creating user name:	WinNT
#	Creation time:	15. 06. 2019 19:21

#	Modifying user name:	WinNT
#	Modification time:	15. 06. 2019 19:21

#	Program:	/corina/corina34_cracker 3.40 0067  02.08.2006

@<TRIPOS>MOLECULE
ASD01510040
  52   54    0    0    0
SMALL
NO_CHARGES


@<TRIPOS>ATOM
   1 C1            -0.0187     1.5258     0.0104 C.3     
   2 C2             0.0021    -0.0041     0.0020 C.3     
   3 O3            -1.3386    -0.4987     0.0122 O.3     
   4 C4            -1.4980    -1.8456     0.0065 C.ar    
   5 N5            -0.4398    -2.6492    -0.0080 N.ar    
   6 C6            -0.5868    -3.9652    -0.0137 C.ar    
   7 N7            -1.7825    -4.5342    -0.0054 N.ar    
   8 C8            -2.8878    -3.7967     0.0091 C.ar    
   9 C9            -2.7749    -2.4066     0.0214 C.ar    
  10 S10           -4.2100    -1.3843     0.0415 S.3     
  11 C11           -4.4465    -1.2232     1.7801 C.ar    
  12 N12           -5.4630    -0.5009     2.2289 N.ar    
  13 C13           -5.6728    -0.3576     3.5353 C.ar    
  14 N14           -6.7386     0.3992     3.9966 N.pl3   
  15 C15           -4.8080    -0.9780     4.4325 C.ar    
  16 C16           -3.7517    -1.7284     3.9238 C.ar    
  17 N17           -3.6066    -1.8318     2.6049 N.ar    
  18 N18           -2.8655    -2.3638     4.7797 N.pl3   
  19 O19           -4.1086    -4.3876     0.0175 O.3     
  20 C20           -4.1380    -5.8163     0.0101 C.3     
  21 C21           -5.5906    -6.2966     0.0213 C.3     
  22 N22            0.5423    -4.7695    -0.0292 N.3     
  23 C23            0.1755    -6.1914    -0.0334 C.3     
  24 C24            1.4357    -7.0441    -0.1972 C.3     
  25 C25            2.3989    -6.7496     0.9560 C.3     
  26 C26            2.7269    -5.2540     0.9674 C.3     
  27 C27            1.4293    -4.4532     1.0975 C.3     
  28 H28            1.0039     1.9031     0.0027 H       
  29 H29           -0.5459     1.8868    -0.8726 H       
  30 H30           -0.5289     1.8773     0.9072 H       
  31 H31            0.5123    -0.3556    -0.8948 H       
  32 H32            0.5293    -0.3651     0.8851 H       
  33 H33           -7.3375     0.8286     3.3658 H       
  34 H34           -6.8856     0.4995     4.9501 H       
  35 H35           -4.9530    -0.8792     5.4981 H       
  36 H36           -2.9794    -2.2872     5.7400 H       
  37 H37           -2.1316    -2.8851     4.4184 H       
  38 H38           -3.6402    -6.1852    -0.8867 H       
  39 H39           -3.6233    -6.1949     0.8931 H       
  40 H40           -5.6129    -7.3864     0.0155 H       
  41 H41           -6.0883    -5.9277     0.9180 H       
  42 H42           -6.1053    -5.9180    -0.8618 H       
  43 H43           -0.3135    -6.4431     0.9078 H       
  44 H44           -0.5063    -6.3882    -0.8607 H       
  45 H45            1.1648    -8.0999    -0.1846 H       
  46 H46            1.9177    -6.8028    -1.1446 H       
  47 H47            1.9316    -7.0272     1.9008 H       
  48 H48            3.3161    -7.3226     0.8199 H       
  49 H49            3.3786    -5.0308     1.8121 H       
  50 H50            3.2292    -4.9845     0.0383 H       
  51 H51            1.6581    -3.3875     1.0915 H       
  52 H52            0.9344    -4.7130     2.0333 H       
@<TRIPOS>BOND
   1    1    2 1
   2    1   28 1
   3    1   29 1
   4    1   30 1
   5    2    3 1
   6    2   31 1
   7    2   32 1
   8    3    4 1
   9    4    5 ar
  10    4    9 ar
  11    5    6 ar
  12    6    7 ar
  13    6   22 1
  14    7    8 ar
  15    8    9 ar
  16    8   19 1
  17    9   10 1
  18   10   11 1
  19   11   12 ar
  20   11   17 ar
  21   12   13 ar
  22   13   14 1
  23   13   15 ar
  24   14   33 1
  25   14   34 1
  26   15   16 ar
  27   15   35 1
  28   16   17 ar
  29   16   18 1
  30   18   36 1
  31   18   37 1
  32   19   20 1
  33   20   21 1
  34   20   38 1
  35   20   39 1
  36   21   40 1
  37   21   41 1
  38   21   42 1
  39   22   23 1
  40   22   27 1
  41   23   24 1
  42   23   43 1
  43   23   44 1
  44   24   25 1
  45   24   45 1
  46   24   46 1
  47   25   26 1
  48   25   47 1
  49   25   48 1
  50   26   27 1
  51   26   49 1
  52   26   50 1
  53   27   51 1
  54   27   52 1

#	End of record

