#	Name: ASD01917378
#	Creating user name:	WinNT
#	Creation time:	15. 06. 2019 20:09

#	Modifying user name:	WinNT
#	Modification time:	15. 06. 2019 20:09

#	Program:	/corina/corina34_cracker 3.40 0067  02.08.2006

@<TRIPOS>MOLECULE
ASD01917378
  49   51    0    0    0
SMALL
NO_CHARGES


@<TRIPOS>ATOM
   1 C1            -0.0188     1.5345     0.0105 C.3     
   2 C2             0.0021    -0.0041     0.0020 C.3     
   3 C3             1.0346    -0.4943     1.0190 C.3     
   4 C4             0.7319     0.0808     2.4040 C.3     
   5 C5             0.6797     1.6157     2.3091 C.3     
   6 C6             1.8973     2.0694     1.4711 C.3     
   7 C7             1.4500     2.0174    -0.0010 C.3     
   8 C8            -0.5348     1.9653     1.4089 C.3     
   9 C9            -0.8269     2.1076    -1.1251 C.2     
  10 O10           -0.3038     2.8442    -1.9274 O.2     
  11 O11           -2.1279     1.7997    -1.2453 O.3     
  12 N12            0.6294     2.2583     3.6246 N.am    
  13 C13            1.6224     2.0542     4.5127 C.2     
  14 O14            2.5594     1.3372     4.2223 O.2     
  15 O15            1.5761     2.6448     5.7218 O.3     
  16 C16            2.6798     2.3801     6.6274 C.3     
  17 C17            2.4566     3.1200     7.9211 C.ar    
  18 C18            1.7666     2.5134     8.9541 C.ar    
  19 C19            1.5618     3.1921    10.1408 C.ar    
  20 C20            2.0474     4.4772    10.2947 C.ar    
  21 C21            2.7381     5.0834     9.2621 C.ar    
  22 C22            2.9466     4.4031     8.0770 C.ar    
  23 C23           -2.8439     2.3879    -2.3632 C.3     
  24 C24           -4.3021     1.9254    -2.3350 C.3     
  25 H25           -0.9836    -0.3836     0.2712 H       
  26 H26            0.2722    -0.3597    -0.9923 H       
  27 H27            1.0056    -1.5829     1.0662 H       
  28 H28            2.0288    -0.1759     0.7056 H       
  29 H29           -0.2295    -0.2959     2.7531 H       
  30 H30            1.5160    -0.2150     3.1010 H       
  31 H31            2.1797     3.0869     1.7411 H       
  32 H32            2.7360     1.3921     1.6319 H       
  33 H33            2.0710     1.3148    -0.5566 H       
  34 H34            1.5146     3.0097    -0.4474 H       
  35 H35           -0.7460     3.0343     1.4353 H       
  36 H36           -1.4134     1.3877     1.6963 H       
  37 H37           -0.1186     2.8307     3.8565 H       
  38 H38            2.7380     1.3100     6.8262 H       
  39 H39            3.6116     2.7164     6.1726 H       
  40 H40            1.3873     1.5094     8.8338 H       
  41 H41            1.0222     2.7185    10.9475 H       
  42 H42            1.8867     5.0077    11.2216 H       
  43 H43            3.1171     6.0876     9.3823 H       
  44 H44            3.4895     4.8754     7.2715 H       
  45 H45           -2.8059     3.4746    -2.2877 H       
  46 H46           -2.3806     2.0722    -3.2980 H       
  47 H47           -4.8396     2.3669    -3.1742 H       
  48 H48           -4.3401     0.8387    -2.4105 H       
  49 H49           -4.7653     2.2411    -1.4002 H       
@<TRIPOS>BOND
   1    1    2 1
   2    1    7 1
   3    1    8 1
   4    1    9 1
   5    2    3 1
   6    2   25 1
   7    2   26 1
   8    3    4 1
   9    3   27 1
  10    3   28 1
  11    4    5 1
  12    4   29 1
  13    4   30 1
  14    5    6 1
  15    5    8 1
  16    5   12 1
  17    6    7 1
  18    6   31 1
  19    6   32 1
  20    7   33 1
  21    7   34 1
  22    8   35 1
  23    8   36 1
  24    9   10 2
  25    9   11 1
  26   11   23 1
  27   12   13 am
  28   12   37 1
  29   13   14 2
  30   13   15 1
  31   15   16 1
  32   16   17 1
  33   16   38 1
  34   16   39 1
  35   17   18 ar
  36   17   22 ar
  37   18   19 ar
  38   18   40 1
  39   19   20 ar
  40   19   41 1
  41   20   21 ar
  42   20   42 1
  43   21   22 ar
  44   21   43 1
  45   22   44 1
  46   23   24 1
  47   23   45 1
  48   23   46 1
  49   24   47 1
  50   24   48 1
  51   24   49 1

#	End of record

