#	Name: ASD01940540
#	Creating user name:	WinNT
#	Creation time:	15. 06. 2019 20:12

#	Modifying user name:	WinNT
#	Modification time:	15. 06. 2019 20:12

#	Program:	/corina/corina34_cracker 3.40 0067  02.08.2006

@<TRIPOS>MOLECULE
ASD01940540
  70   75    0    0    0
SMALL
NO_CHARGES


@<TRIPOS>ATOM
   1 C1            -0.1518     1.4044    -0.3632 C.ar    
   2 C2             0.1011     0.6044     0.7413 C.ar    
   3 C3             1.2563    -0.1635     0.7885 C.ar    
   4 C4             2.1553    -0.1287    -0.2701 C.ar    
   5 C5             1.9005     0.6698    -1.3687 C.ar    
   6 C6             0.7514     1.4348    -1.4186 C.ar    
   7 N7            -1.3191     2.1763    -0.4171 N.am    
   8 C8            -1.2445     3.5357    -0.1676 C.2     
   9 C9            -2.4251     4.3143    -0.2230 C.2     
  10 C10           -3.6960     3.6311    -0.5478 C.2     
  11 N11           -3.6505     2.2492    -0.7814 N.am    
  12 C12           -2.4862     1.5831    -0.7152 C.2     
  13 C13           -0.0474     4.1573     0.1346 C.2     
  14 C14           -0.0348     5.5332     0.3765 C.2     
  15 N15           -1.1666     6.2573     0.3195 N.am    
  16 C16           -2.3653     5.6740     0.0243 C.2     
  17 N17           -3.5078     6.4351    -0.0284 N.pl3   
  18 C18           -1.1126     7.6980     0.5795 C.3     
  19 O19            1.0204     6.0870     0.6443 O.2     
  20 C20            1.2295     3.3598     0.2027 C.3     
  21 C21           -4.8465     4.3065    -0.6159 C.2     
  22 C22           -4.8828     1.5269    -1.1068 C.3     
  23 C23           -5.5597     1.8497    -2.4404 C.3     
  24 C24           -4.8281     0.5186    -2.2562 C.3     
  25 N25            1.5151    -0.9711     1.9005 N.am    
  26 C26            1.1414    -0.5649     3.1300 C.2     
  27 C27            1.3092    -1.4660     4.2882 C.ar    
  28 O28            0.6660     0.5432     3.2857 O.2     
  29 C29           -4.2938     6.5976     1.1180 C.ar    
  30 C30           -3.8690     6.0759     2.3325 C.ar    
  31 C31           -4.6465     6.2381     3.4627 C.ar    
  32 C32           -5.8480     6.9197     3.3864 C.ar    
  33 C33           -6.2756     7.4409     2.1786 C.ar    
  34 C34           -5.4994     7.2871     1.0445 C.ar    
  35 F35           -5.9142     7.8009    -0.1342 F       
  36 O36           -2.4900     0.3865    -0.9299 O.2     
  37 C37            1.8550    -2.7393     4.1115 C.ar    
  38 C38            2.0105    -3.5794     5.1964 C.ar    
  39 C39            1.6253    -3.1615     6.4618 C.ar    
  40 C40            1.0810    -1.8954     6.6441 C.ar    
  41 C41            0.9279    -1.0451     5.5635 C.ar    
  42 F42            2.5386    -4.8111     5.0249 F       
  43 F43            1.7792    -3.9873     7.5199 F       
  44 O44            0.7045    -1.4902     7.8861 O.3     
  45 I45           -7.0226     7.1624     5.1040 I       
  46 H46           -0.5992     0.5793     1.5631 H       
  47 H47            3.0544    -0.7259    -0.2341 H       
  48 H48            2.6012     0.6957    -2.1900 H       
  49 H49            0.5549     2.0576    -2.2788 H       
  50 H50           -3.7697     6.8598    -0.8602 H       
  51 H51           -0.1030     7.9748     0.8832 H       
  52 H52           -1.3811     8.2411    -0.3266 H       
  53 H53           -1.8134     7.9502     1.3753 H       
  54 H54            1.6448     3.2525    -0.7993 H       
  55 H55            1.9471     3.8766     0.8400 H       
  56 H56            1.0202     2.3735     0.6168 H       
  57 H57           -4.8731     5.3552    -0.3592 H       
  58 H58           -5.7502     3.8038    -0.9276 H       
  59 H59           -5.5268     1.2906    -0.2597 H       
  60 H60           -6.6490     1.8253    -2.4709 H       
  61 H61           -5.0881     2.5995    -3.0757 H       
  62 H62           -3.8753     0.3927    -2.7703 H       
  63 H63           -5.4362    -0.3815    -2.1655 H       
  64 H64            1.9637    -1.8236     1.7868 H       
  65 H65           -2.9315     5.5432     2.3935 H       
  66 H66           -4.3161     5.8319     4.4072 H       
  67 H67           -7.2142     7.9722     2.1222 H       
  68 H68            2.1548    -3.0668     3.1270 H       
  69 H69            0.5095    -0.0596     5.7055 H       
  70 H70            1.4041    -1.0453     8.3837 H       
@<TRIPOS>BOND
   1    1    2 ar
   2    1    6 ar
   3    1    7 1
   4    2    3 ar
   5    2   46 1
   6    3    4 ar
   7    3   25 1
   8    4    5 ar
   9    4   47 1
  10    5    6 ar
  11    5   48 1
  12    6   49 1
  13    7    8 1
  14    7   12 am
  15    8   13 2
  16    8    9 1
  17    9   10 1
  18    9   16 2
  19   10   11 1
  20   10   21 2
  21   11   12 am
  22   11   22 1
  23   12   36 2
  24   13   14 1
  25   13   20 1
  26   14   15 am
  27   14   19 2
  28   15   16 1
  29   15   18 1
  30   16   17 1
  31   17   29 1
  32   17   50 1
  33   18   51 1
  34   18   52 1
  35   18   53 1
  36   20   54 1
  37   20   55 1
  38   20   56 1
  39   21   57 1
  40   21   58 1
  41   22   23 1
  42   22   24 1
  43   22   59 1
  44   23   24 1
  45   23   60 1
  46   23   61 1
  47   24   62 1
  48   24   63 1
  49   25   26 am
  50   25   64 1
  51   26   27 1
  52   26   28 2
  53   27   37 ar
  54   27   41 ar
  55   29   30 ar
  56   29   34 ar
  57   30   31 ar
  58   30   65 1
  59   31   32 ar
  60   31   66 1
  61   32   33 ar
  62   32   45 1
  63   33   34 ar
  64   33   67 1
  65   34   35 1
  66   37   38 ar
  67   37   68 1
  68   38   39 ar
  69   38   42 1
  70   39   40 ar
  71   39   43 1
  72   40   41 ar
  73   40   44 1
  74   41   69 1
  75   44   70 1

#	End of record

