#	Name: ASD01810816
#	Creating user name:	WinNT
#	Creation time:	15. 06. 2019 19:25

#	Modifying user name:	WinNT
#	Modification time:	15. 06. 2019 19:25

#	Program:	/corina/corina34_cracker 3.40 0067  02.08.2006

@<TRIPOS>MOLECULE
ASD01810816
  37   39    0    0    0
SMALL
NO_CHARGES


@<TRIPOS>ATOM
   1 C1             0.3629     1.4537     0.0430 C.2     
   2 C2             0.1867    -0.0130     0.0179 C.ar    
   3 C3             1.3009    -0.8507    -0.0788 C.ar    
   4 C4             1.1374    -2.2211    -0.1019 C.ar    
   5 C5            -0.1265    -2.7734    -0.0296 C.ar    
   6 C6            -1.2482    -1.9481     0.0674 C.ar    
   7 C7            -1.0908    -0.5645     0.0965 C.ar    
   8 O8             1.4793     1.9307     0.0851 O.2     
   9 O9            -0.7142     2.2621     0.0136 O.3     
  10 N10           -4.1651    -3.9765     0.2726 N.2     
  11 N11           -2.8900    -3.8220     0.2200 N.2     
  12 C12           -2.6011    -2.5420     0.1447 C.2     
  13 N13           -3.7893    -1.8629     0.1518 N.pl3   
  14 C14           -4.7591    -2.8139     0.2342 C.2     
  15 C15           -6.2458    -2.5704     0.2740 C.3     
  16 C16            2.6836    -0.2568    -0.1587 C.3     
  17 C17           -0.2950    -4.2708    -0.0560 C.3     
  18 C18            0.0960    -4.9111    -1.3983 C.3     
  19 C19            0.7287    -6.0498    -0.5810 C.3     
  20 C20            0.8872    -5.0348     0.5633 C.3     
  21 H21            2.0017    -2.8643    -0.1771 H       
  22 H22           -1.9551     0.0781     0.1759 H       
  23 H23           -0.5488     3.2147     0.0318 H       
  24 H24           -3.9143    -0.9020     0.1075 H       
  25 H25           -6.5682    -2.4591     1.3093 H       
  26 H26           -6.4799    -1.6610    -0.2793 H       
  27 H27           -6.7646    -3.4152    -0.1792 H       
  28 H28            3.0384    -0.0257     0.8458 H       
  29 H29            3.3597    -0.9720    -0.6272 H       
  30 H30            2.6529     0.6568    -0.7523 H       
  31 H31           -1.2677    -4.5938     0.3150 H       
  32 H32           -0.7585    -5.2261    -1.9972 H       
  33 H33            0.8200    -4.3269    -1.9663 H       
  34 H34            0.0365    -6.8604    -0.3529 H       
  35 H35            1.6771    -6.4031    -0.9858 H       
  36 H36            1.8275    -4.4843     0.5315 H       
  37 H37            0.6714    -5.4495     1.5479 H       
@<TRIPOS>BOND
   1    1    2 1
   2    1    8 2
   3    1    9 1
   4    2    3 ar
   5    2    7 ar
   6    3    4 ar
   7    3   16 1
   8    4    5 ar
   9    4   21 1
  10    5    6 ar
  11    5   17 1
  12    6    7 ar
  13    6   12 1
  14    7   22 1
  15    9   23 1
  16   10   11 1
  17   10   14 2
  18   11   12 2
  19   12   13 1
  20   13   14 1
  21   13   24 1
  22   14   15 1
  23   15   25 1
  24   15   26 1
  25   15   27 1
  26   16   28 1
  27   16   29 1
  28   16   30 1
  29   17   18 1
  30   17   20 1
  31   17   31 1
  32   18   19 1
  33   18   32 1
  34   18   33 1
  35   19   20 1
  36   19   34 1
  37   19   35 1
  38   20   36 1
  39   20   37 1

#	End of record

