#	Name: ASD01918035
#	Creating user name:	WinNT
#	Creation time:	15. 06. 2019 20:10

#	Modifying user name:	WinNT
#	Modification time:	15. 06. 2019 20:10

#	Program:	/corina/corina34_cracker 3.40 0067  02.08.2006

@<TRIPOS>MOLECULE
ASD01918035
  44   47    0    0    0
SMALL
NO_CHARGES


@<TRIPOS>ATOM
   1 N1             4.8190    -0.4146    -2.1410 N.ar    
   2 C2             5.2863     0.2836    -3.1572 C.ar    
   3 C3             5.1753     1.6615    -3.1826 C.ar    
   4 C4             4.5632     2.3103    -2.1227 C.ar    
   5 C5             4.0810     1.5426    -1.0669 C.ar    
   6 C6             4.2301     0.1641    -1.1133 C.ar    
   7 O7             3.4736     2.1348    -0.0053 O.3     
   8 C8             3.4560     3.4940     0.0438 C.2     
   9 N9             2.2078     5.5082    -0.0231 N.pl3   
  10 C10            2.2740     4.1523    -0.0661 C.2     
  11 C11            4.6565     4.1941     0.2128 C.2     
  12 C12            4.6304     5.5835     0.2620 C.2     
  13 C13            3.3388     6.2580     0.1341 C.2     
  14 C14            5.8714     6.3562     0.4389 C.2     
  15 N15            5.8264     7.7024     0.4843 N.am    
  16 C16            6.9847     8.4302     0.7573 C.ar    
  17 O17            6.9371     5.7794     0.5441 O.2     
  18 N18            1.1462     6.4206    -0.1106 N.2     
  19 C19            1.6624     7.6228    -0.0136 C.2     
  20 N20            2.9774     7.5313     0.1391 N.2     
  21 N21            8.1437     7.8003     0.8633 N.ar    
  22 C22            6.9098     9.8098     0.9093 C.ar    
  23 C23            8.0649    10.5220     1.1795 C.ar    
  24 C24            9.2642     9.8237     1.2890 C.ar    
  25 C25            9.2637     8.4483     1.1200 C.ar    
  26 C26            5.7143     2.4483    -4.3494 C.3     
  27 O27           10.4232    10.4840     1.5536 O.3     
  28 C28           11.6113     9.6959     1.6507 C.3     
  29 H29            5.7626    -0.2277    -3.9807 H       
  30 H30            4.4630     3.3857    -2.1158 H       
  31 H31            3.8595    -0.4412    -0.2992 H       
  32 H32            1.3641     3.5840    -0.1911 H       
  33 H33            5.5916     3.6615     0.3041 H       
  34 H34            4.9885     8.1652     0.3271 H       
  35 H35            1.1020     8.5455    -0.0455 H       
  36 H36            5.9621    10.3194     0.8174 H       
  37 H37            8.0368    11.5946     1.3022 H       
  38 H38           10.1910     7.9004     1.1997 H       
  39 H39            4.9364     2.5561    -5.1053 H       
  40 H40            6.0286     3.4347    -4.0083 H       
  41 H41            6.5677     1.9233    -4.7786 H       
  42 H42           11.4994     8.9673     2.4536 H       
  43 H43           11.7796     9.1750     0.7082 H       
  44 H44           12.4610    10.3444     1.8642 H       
@<TRIPOS>BOND
   1    1    2 ar
   2    1    6 ar
   3    2    3 ar
   4    2   29 1
   5    3    4 ar
   6    3   26 1
   7    4    5 ar
   8    4   30 1
   9    5    6 ar
  10    5    7 1
  11    6   31 1
  12    7    8 1
  13    8   11 1
  14    8   10 2
  15    9   10 1
  16    9   18 1
  17    9   13 1
  18   10   32 1
  19   11   12 2
  20   11   33 1
  21   12   13 1
  22   12   14 1
  23   13   20 2
  24   14   15 am
  25   14   17 2
  26   15   16 1
  27   15   34 1
  28   16   22 ar
  29   16   21 ar
  30   18   19 2
  31   19   20 1
  32   19   35 1
  33   21   25 ar
  34   22   23 ar
  35   22   36 1
  36   23   24 ar
  37   23   37 1
  38   24   25 ar
  39   24   27 1
  40   25   38 1
  41   26   39 1
  42   26   40 1
  43   26   41 1
  44   27   28 1
  45   28   42 1
  46   28   43 1
  47   28   44 1

#	End of record

