#	Name: ASD01028720
#	Creating user name:	WinNT
#	Creation time:	15. 06. 2019 18:58

#	Modifying user name:	WinNT
#	Modification time:	15. 06. 2019 18:58

#	Program:	/corina/corina34_cracker 3.40 0067  02.08.2006

@<TRIPOS>MOLECULE
ASD01028720
  16   16    0    0    0
SMALL
NO_CHARGES


@<TRIPOS>ATOM
   1 S1            -0.0211     1.7054     0.0114 S.3     
   2 C2             0.0021    -0.0041     0.0020 C.2     
   3 N3             1.2253    -0.4335    -0.0120 N.2     
   4 C4             2.1795     0.4811    -0.0162 C.2     
   5 C5             1.7401     1.7406    -0.0052 C.2     
   6 N6            -1.1237    -0.8135     0.0084 N.pl3   
   7 C7            -0.9778    -2.2712    -0.0008 C.3     
   8 C8            -2.4590    -0.2111     0.0244 C.3     
   9 Br9            2.8196     3.2932    -0.0072 Br      
  10 H10            3.2297     0.2292    -0.0272 H       
  11 H11           -0.9318    -2.6383     1.0245 H       
  12 H12           -1.8321    -2.7187    -0.5089 H       
  13 H13           -0.0610    -2.5413    -0.5249 H       
  14 H14           -2.5873     0.4115    -0.8611 H       
  15 H15           -3.2128    -0.9984     0.0274 H       
  16 H16           -2.5703     0.4019     0.9188 H       
@<TRIPOS>BOND
   1    1    2 1
   2    1    5 1
   3    2    3 2
   4    2    6 1
   5    3    4 1
   6    4    5 2
   7    4   10 1
   8    5    9 1
   9    6    7 1
  10    6    8 1
  11    7   11 1
  12    7   12 1
  13    7   13 1
  14    8   14 1
  15    8   15 1
  16    8   16 1

#	End of record

