#	Name: ASD01885024
#	Creating user name:	WinNT
#	Creation time:	15. 06. 2019 19:49

#	Modifying user name:	WinNT
#	Modification time:	15. 06. 2019 19:49

#	Program:	/corina/corina34_cracker 3.40 0067  02.08.2006

@<TRIPOS>MOLECULE
ASD01885024
  46   49    0    0    0
SMALL
NO_CHARGES


@<TRIPOS>ATOM
   1 C1            -0.4406     1.2695     0.2472 C.3     
   2 C2            -0.1584    -0.2329     0.1824 C.3     
   3 H3            -1.0921    -0.7836     0.2965 H       
   4 C4             0.4741    -0.5752    -1.1654 C.3     
   5 N5             1.0421    -1.9186    -1.1938 N.am    
   6 C6             1.7247    -2.4212    -0.1366 C.2     
   7 O7             2.3662    -3.4515    -0.2179 O.2     
   8 C8             1.6475    -1.6519     1.1145 C.2     
   9 C9             2.3371    -1.7609     2.2892 C.2     
  10 C10            3.4076    -2.7637     2.6348 C.3     
  11 O11            3.8686    -2.5284     3.9668 O.3     
  12 C12            4.8407    -3.3509     4.4368 C.ar    
  13 C13            5.3596    -4.3701     3.6421 C.ar    
  14 C14            6.3470    -5.1851     4.1565 C.ar    
  15 N15            6.7989    -5.0079     5.3836 N.ar    
  16 C16            6.3325    -4.0536     6.1666 C.ar    
  17 C17            5.3487    -3.1935     5.7239 C.ar    
  18 C18            1.8326    -0.7372     3.1025 C.2     
  19 N19            0.9119    -0.0957     2.4213 N.2     
  20 N20            0.7648    -0.6049     1.2613 N.pl3   
  21 C21            0.8782    -2.7058    -2.3379 C.ar    
  22 C22            0.0869    -3.8463    -2.2904 C.ar    
  23 C23           -0.0734    -4.6213    -3.4223 C.ar    
  24 C24            0.5529    -4.2628    -4.6019 C.ar    
  25 C25            1.3414    -3.1279    -4.6525 C.ar    
  26 C26            1.5016    -2.3457    -3.5257 C.ar    
  27 C27            0.3762    -5.1112    -5.8349 C.3     
  28 F28           -0.7321    -4.6575    -6.5581 F       
  29 F29            1.5223    -5.0200    -6.6319 F       
  30 F30            0.1742    -6.4436    -5.4592 F       
  31 H31            0.4933     1.8199     0.1331 H       
  32 H32           -1.1253     1.5455    -0.5547 H       
  33 H33           -0.8909     1.5134     1.2095 H       
  34 H34           -0.2875    -0.4983    -1.9415 H       
  35 H35            1.2638     0.1457    -1.3771 H       
  36 H36            2.9978    -3.7713     2.5648 H       
  37 H37            4.2401    -2.6609     1.9387 H       
  38 H38            4.9939    -4.5208     2.6372 H       
  39 H39            6.7548    -5.9782     3.5474 H       
  40 H40            6.7291    -3.9415     7.1649 H       
  41 H41            4.9748    -2.4114     6.3681 H       
  42 H42            2.1459    -0.5154     4.1120 H       
  43 H43           -0.4022    -4.1270    -1.3694 H       
  44 H44           -0.6883    -5.5084    -3.3859 H       
  45 H45            1.8295    -2.8510    -5.5753 H       
  46 H46            2.1139    -1.4570    -3.5670 H       
@<TRIPOS>BOND
   1    1    2 1
   2    1   31 1
   3    1   32 1
   4    1   33 1
   5    2    3 1
   6    2   20 1
   7    2    4 1
   8    4    5 1
   9    4   34 1
  10    4   35 1
  11    5    6 am
  12    5   21 1
  13    6    7 2
  14    6    8 1
  15    8   20 1
  16    8    9 2
  17    9   10 1
  18    9   18 1
  19   10   11 1
  20   10   36 1
  21   10   37 1
  22   11   12 1
  23   12   17 ar
  24   12   13 ar
  25   13   14 ar
  26   13   38 1
  27   14   15 ar
  28   14   39 1
  29   15   16 ar
  30   16   17 ar
  31   16   40 1
  32   17   41 1
  33   18   19 2
  34   18   42 1
  35   19   20 1
  36   21   26 ar
  37   21   22 ar
  38   22   23 ar
  39   22   43 1
  40   23   24 ar
  41   23   44 1
  42   24   25 ar
  43   24   27 1
  44   25   26 ar
  45   25   45 1
  46   26   46 1
  47   27   28 1
  48   27   29 1
  49   27   30 1

#	End of record

