#	Name: ASD01915114
#	Creating user name:	WinNT
#	Creation time:	15. 06. 2019 20:04

#	Modifying user name:	WinNT
#	Modification time:	15. 06. 2019 20:04

#	Program:	/corina/corina34_cracker 3.40 0067  02.08.2006

@<TRIPOS>MOLECULE
ASD01915114
  46   49    0    0    0
SMALL
NO_CHARGES


@<TRIPOS>ATOM
   1 C1             0.6870     0.7268    -0.9519 C.ar    
   2 C2             0.9182    -0.6267    -0.6965 C.ar    
   3 N3            -0.0780    -1.5089    -0.8033 N.ar    
   4 C4            -1.2939    -1.1521    -1.1457 C.ar    
   5 C5            -1.6010     0.1729    -1.4149 C.ar    
   6 C6            -0.6149     1.1297    -1.3160 C.ar    
   7 C7             1.8942     1.5301    -0.7832 C.2     
   8 C8             2.9713     0.8359    -0.4239 C.2     
   9 S9             2.6052    -0.8699    -0.2586 S.3     
  10 C10            1.9183     2.9968    -0.9946 C.ar    
  11 C11            1.1833     3.8364    -0.1584 C.ar    
  12 C12            1.2097     5.2012    -0.3593 C.ar    
  13 C13            1.9638     5.7374    -1.3892 C.ar    
  14 C14            2.6954     4.9083    -2.2223 C.ar    
  15 C15            2.6807     3.5425    -2.0267 C.ar    
  16 Cl16           1.9916     7.4554    -1.6370 Cl      
  17 S17            4.5624     1.5416    -0.1499 S.o2    
  18 C18            4.7521     1.7404     1.5906 C.ar    
  19 O19            5.5104     0.5606    -0.5474 O.2     
  20 O20            4.5210     2.8507    -0.7011 O.2     
  21 C21            5.1142     0.6606     2.3741 C.ar    
  22 C22            5.2630     0.8165     3.7396 C.ar    
  23 C23            5.0501     2.0523     4.3214 C.ar    
  24 C24            4.6889     3.1322     3.5377 C.ar    
  25 C25            4.5443     2.9773     2.1717 C.ar    
  26 C26            5.3463    -0.6865     1.7398 C.3     
  27 C27            4.1506     4.1546     1.3174 C.3     
  28 C28            5.2114     2.2220     5.8101 C.3     
  29 H29           -2.0672    -1.9024    -1.2193 H       
  30 H30           -2.6054     0.4530    -1.6960 H       
  31 H31           -0.8325     2.1674    -1.5213 H       
  32 H32            0.5941     3.4191     0.6448 H       
  33 H33            0.6407     5.8524     0.2878 H       
  34 H34            3.2820     5.3317    -3.0242 H       
  35 H35            3.2520     2.8967    -2.6769 H       
  36 H36            5.5452    -0.0272     4.3518 H       
  37 H37            4.5223     4.0976     3.9923 H       
  38 H38            6.3936    -0.7769     1.4518 H       
  39 H39            5.0966    -1.4719     2.4533 H       
  40 H40            4.7165    -0.7852     0.8557 H       
  41 H41            5.0438     4.6021     0.8814 H       
  42 H42            3.4863     3.8195     0.5208 H       
  43 H43            3.6368     4.8938     1.9319 H       
  44 H44            6.2419     2.4969     6.0349 H       
  45 H45            4.5412     3.0068     6.1610 H       
  46 H46            4.9677     1.2852     6.3111 H       
@<TRIPOS>BOND
   1    1    2 ar
   2    1    7 1
   3    1    6 ar
   4    2    3 ar
   5    2    9 1
   6    3    4 ar
   7    4    5 ar
   8    4   29 1
   9    5    6 ar
  10    5   30 1
  11    6   31 1
  12    7    8 2
  13    7   10 1
  14    8    9 1
  15    8   17 1
  16   10   11 ar
  17   10   15 ar
  18   11   12 ar
  19   11   32 1
  20   12   13 ar
  21   12   33 1
  22   13   14 ar
  23   13   16 1
  24   14   15 ar
  25   14   34 1
  26   15   35 1
  27   17   18 1
  28   17   19 2
  29   17   20 2
  30   18   21 ar
  31   18   25 ar
  32   21   22 ar
  33   21   26 1
  34   22   23 ar
  35   22   36 1
  36   23   24 ar
  37   23   28 1
  38   24   25 ar
  39   24   37 1
  40   25   27 1
  41   26   38 1
  42   26   39 1
  43   26   40 1
  44   27   41 1
  45   27   42 1
  46   27   43 1
  47   28   44 1
  48   28   45 1
  49   28   46 1

#	End of record

