#	Name: ASD00960287
#	Creating user name:	WinNT
#	Creation time:	15. 06. 2019 18:53

#	Modifying user name:	WinNT
#	Modification time:	15. 06. 2019 18:53

#	Program:	/corina/corina34_cracker 3.40 0067  02.08.2006

@<TRIPOS>MOLECULE
ASD00960287
  40   43    0    0    0
SMALL
NO_CHARGES


@<TRIPOS>ATOM
   1 C1            -0.0167     1.3792     0.0096 C.2     
   2 C2             0.0021    -0.0041     0.0020 C.2     
   3 N3             1.2771     1.8200    -0.0004 N.pl3   
   4 C4             2.1088     0.7440    -0.0004 C.2     
   5 C5             1.3572    -0.3983    -0.0066 C.2     
   6 N6             1.7790     3.1307     0.0043 N.2     
   7 C7             3.0443     3.3096    -0.2320 C.2     
   8 N8             3.8857     2.2585    -0.5240 N.pl3   
   9 C9             3.6105     0.9151     0.0171 C.3     
  10 N10            4.1126     0.8145     1.3940 N.3     
  11 C11            1.8690    -1.7878    -0.0192 C.2     
  12 N12            1.3667    -2.8509     0.6785 N.pl3   
  13 N13            2.1732    -3.9513     0.3511 N.2     
  14 N14            3.0775    -3.5575    -0.4757 N.2     
  15 C15            2.9297    -2.2598    -0.7331 C.2     
  16 C16           -1.2128     2.2231     0.0201 C.2     
  17 O17           -2.3170     1.7130     0.0233 O.2     
  18 O18           -1.0904     3.5666     0.0263 O.3     
  19 C19           -2.2995     4.3282     0.0365 C.3     
  20 C20           -1.9673     5.7981     0.0422 C.ar    
  21 C21           -1.8212     6.4783    -1.1523 C.ar    
  22 C22           -1.5164     7.8266    -1.1470 C.ar    
  23 C23           -1.3583     8.4948     0.0527 C.ar    
  24 C24           -1.5053     7.8148     1.2472 C.ar    
  25 C25           -1.8143     6.4674     1.2420 C.ar    
  26 H26           -0.8573    -0.6582     0.0029 H       
  27 H27            3.4477     4.3109    -0.1989 H       
  28 H28            4.6616     2.4028    -1.0879 H       
  29 H29            4.0802     0.1567    -0.6093 H       
  30 H30            5.1083     0.9740     1.4283 H       
  31 H31            3.6231     1.4513     2.0048 H       
  32 H32            0.6055    -2.8455     1.2797 H       
  33 H33            3.5528    -1.6751    -1.3937 H       
  34 H34           -2.8854     4.0915    -0.8517 H       
  35 H35           -2.8762     4.0825     0.9282 H       
  36 H36           -1.9448     5.9563    -2.0896 H       
  37 H37           -1.4016     8.3579    -2.0802 H       
  38 H38           -1.1195     9.5481     0.0569 H       
  39 H39           -1.3814     8.3367     2.1846 H       
  40 H40           -1.9329     5.9369     2.1752 H       
@<TRIPOS>BOND
   1    1    2 2
   2    1    3 1
   3    1   16 1
   4    2    5 1
   5    2   26 1
   6    3    4 1
   7    3    6 1
   8    4    5 2
   9    4    9 1
  10    5   11 1
  11    6    7 2
  12    7    8 1
  13    7   27 1
  14    8    9 1
  15    8   28 1
  16    9   10 1
  17    9   29 1
  18   10   30 1
  19   10   31 1
  20   11   12 1
  21   11   15 2
  22   12   13 1
  23   12   32 1
  24   13   14 2
  25   14   15 1
  26   15   33 1
  27   16   17 2
  28   16   18 1
  29   18   19 1
  30   19   20 1
  31   19   34 1
  32   19   35 1
  33   20   21 ar
  34   20   25 ar
  35   21   22 ar
  36   21   36 1
  37   22   23 ar
  38   22   37 1
  39   23   24 ar
  40   23   38 1
  41   24   25 ar
  42   24   39 1
  43   25   40 1

#	End of record

