#	Name: ASD03240636
#	Creating user name:	WinNT
#	Creation time:	15. 06. 2019 20:35

#	Modifying user name:	WinNT
#	Modification time:	15. 06. 2019 20:35

#	Program:	/corina/corina34_cracker 3.40 0067  02.08.2006

@<TRIPOS>MOLECULE
ASD03240636
  71   78    0    0    0
SMALL
NO_CHARGES


@<TRIPOS>ATOM
   1 C1             0.0871     1.0803    -0.5249 C.ar    
   2 C2             0.1864    -0.2894    -0.3931 C.ar    
   3 N3             1.3506    -0.8678    -0.1663 N.ar    
   4 C4             2.4711    -0.1672    -0.0547 C.ar    
   5 C5             2.4467     1.2194    -0.1913 C.ar    
   6 C6             1.2345     1.8560    -0.4239 C.ar    
   7 N7             3.6622    -0.8332     0.2204 N.pl3   
   8 C8             4.3565    -0.5876     1.4019 C.ar    
   9 C9             4.8672     0.6859     1.6749 C.ar    
  10 C10            4.6994     1.7804     0.6938 C.2     
  11 N11            3.6203     1.9830    -0.1166 N.pl3   
  12 C12            4.5433    -1.6120     2.3203 C.ar    
  13 C13            5.2203    -1.3687     3.5001 C.ar    
  14 C14            5.7160    -0.1061     3.7766 C.ar    
  15 C15            5.5434     0.9218     2.8716 C.ar    
  16 N16            5.5886     2.7261     0.4654 N.2     
  17 C17            5.1327     3.5568    -0.4847 C.2     
  18 C18            3.8834     3.1071    -0.8744 C.2     
  19 C19            3.0064     3.7091    -1.8970 C.ar    
  20 C20            2.8094     5.0919    -1.9268 C.ar    
  21 C21            2.3737     2.8995    -2.8437 C.ar    
  22 C22            1.5553     3.4691    -3.7966 C.ar    
  23 C23            1.3603     4.8389    -3.8165 C.ar    
  24 C24            1.9882     5.6476    -2.8855 C.ar    
  25 C25            5.8402     4.7427    -1.0206 C.ar    
  26 C26            0.4650     5.4538    -4.8612 C.3     
  27 C27            6.6411     5.5172    -0.1809 C.ar    
  28 N28           -0.4447     4.4791    -5.4782 N.3     
  29 C29           -0.2361     6.7397    -4.3923 C.3     
  30 C30            0.0303     7.3038    -5.7979 C.3     
  31 C31            1.2162     6.3282    -5.8790 C.3     
  32 C32            7.2983     6.6204    -0.6823 C.ar    
  33 C33            7.1636     6.9613    -2.0229 C.ar    
  34 C34            6.3660     6.1918    -2.8617 C.ar    
  35 C35            5.7114     5.0840    -2.3672 C.ar    
  36 N36            7.8316     8.0812    -2.5289 N.am    
  37 C37            9.0576     8.3996    -2.0685 C.2     
  38 O38            9.5464     7.7662    -1.1569 O.2     
  39 C39            9.8212     9.5425    -2.6863 C.3     
  40 C40           11.2076     9.8543    -2.1193 C.3     
  41 C41           11.0735     9.1999    -3.4958 C.3     
  42 H42           -0.8711     1.5434    -0.7091 H       
  43 H43           -0.7022    -0.8975    -0.4763 H       
  44 H44            1.1854     2.9303    -0.5242 H       
  45 H45            4.0117    -1.4751    -0.4174 H       
  46 H46            4.1588    -2.5997     2.1126 H       
  47 H47            5.3634    -2.1687     4.2113 H       
  48 H48            6.2393     0.0753     4.7037 H       
  49 H49            5.9313     1.9059     3.0896 H       
  50 H50            3.2985     5.7242    -1.2006 H       
  51 H51            2.5253     1.8303    -2.8296 H       
  52 H52            1.0659     2.8445    -4.5293 H       
  53 H53            1.8314     6.7160    -2.9069 H       
  54 H54            6.7458     5.2530     0.8610 H       
  55 H55            0.0589     3.6634    -5.7930 H       
  56 H56           -1.1857     4.2236    -4.8429 H       
  57 H57           -1.2944     6.6037    -4.1697 H       
  58 H58            0.2995     7.2656    -3.6020 H       
  59 H59           -0.7632     7.0870    -6.5130 H       
  60 H60            0.3270     8.3527    -5.7984 H       
  61 H61            2.1488     6.7416    -5.4952 H       
  62 H62            1.3303     5.8600    -6.8567 H       
  63 H63            7.9181     7.2205    -0.0327 H       
  64 H64            6.2626     6.4594    -3.9028 H       
  65 H65            5.0918     4.4864    -3.0194 H       
  66 H66            7.4125     8.6287    -3.2112 H       
  67 H67            9.2160    10.3829    -3.0264 H       
  68 H68           11.5147    10.8996    -2.0867 H       
  69 H69           11.5675     9.2326    -1.2994 H       
  70 H70           11.3451     8.1478    -3.5815 H       
  71 H71           11.2923     9.8147    -4.3688 H       
@<TRIPOS>BOND
   1    1    2 ar
   2    1    6 ar
   3    1   42 1
   4    2    3 ar
   5    2   43 1
   6    3    4 ar
   7    4    5 ar
   8    4    7 1
   9    5    6 ar
  10    5   11 1
  11    6   44 1
  12    7    8 1
  13    7   45 1
  14    8    9 ar
  15    8   12 ar
  16    9   10 1
  17    9   15 ar
  18   10   11 1
  19   10   16 2
  20   11   18 1
  21   12   13 ar
  22   12   46 1
  23   13   14 ar
  24   13   47 1
  25   14   15 ar
  26   14   48 1
  27   15   49 1
  28   16   17 1
  29   17   18 2
  30   17   25 1
  31   18   19 1
  32   19   20 ar
  33   19   21 ar
  34   20   24 ar
  35   20   50 1
  36   21   22 ar
  37   21   51 1
  38   22   23 ar
  39   22   52 1
  40   23   24 ar
  41   23   26 1
  42   24   53 1
  43   25   27 ar
  44   25   35 ar
  45   26   29 1
  46   26   28 1
  47   26   31 1
  48   27   32 ar
  49   27   54 1
  50   28   55 1
  51   28   56 1
  52   29   30 1
  53   29   57 1
  54   29   58 1
  55   30   31 1
  56   30   59 1
  57   30   60 1
  58   31   61 1
  59   31   62 1
  60   32   33 ar
  61   32   63 1
  62   33   34 ar
  63   33   36 1
  64   34   35 ar
  65   34   64 1
  66   35   65 1
  67   36   37 am
  68   36   66 1
  69   37   38 2
  70   37   39 1
  71   39   40 1
  72   39   41 1
  73   39   67 1
  74   40   41 1
  75   40   68 1
  76   40   69 1
  77   41   70 1
  78   41   71 1

#	End of record

