#	Name: ASD01885446
#	Creating user name:	WinNT
#	Creation time:	15. 06. 2019 19:49

#	Modifying user name:	WinNT
#	Modification time:	15. 06. 2019 19:49

#	Program:	/corina/corina34_cracker 3.40 0067  02.08.2006

@<TRIPOS>MOLECULE
ASD01885446
  43   45    0    0    0
SMALL
NO_CHARGES


@<TRIPOS>ATOM
   1 C1            -0.0169     1.3919     0.0097 C.ar    
   2 C2             0.0021    -0.0041     0.0020 C.ar    
   3 N3            -1.1141    -0.7731     0.0202 N.2     
   4 C4            -2.1908    -0.5679    -0.6467 C.2     
   5 C5            -2.3524     0.6328    -1.5416 C.3     
   6 C6            -2.2798     1.8710    -0.6842 C.2     
   7 N7            -1.1827     2.1467     0.0191 N.am    
   8 C8             1.1874     2.0914     0.0020 C.ar    
   9 C9             2.4012     1.4088    -0.0183 C.ar    
  10 C10            2.4112     0.0106    -0.0315 C.ar    
  11 C11            1.2376    -0.6788    -0.0216 C.ar    
  12 C12           -3.2993    -1.5325    -0.5336 C.ar    
  13 O13           -3.2292     2.6242    -0.6361 O.2     
  14 C14           -4.4921    -1.3451    -1.2452 C.ar    
  15 C15           -5.5092    -2.2724    -1.1127 C.ar    
  16 N16           -5.3733    -3.3228    -0.3318 N.ar    
  17 C17           -4.2630    -3.5448     0.3629 C.ar    
  18 C18           -3.1873    -2.6645     0.2834 C.ar    
  19 C19            3.6732     2.1591    -0.0264 C.2     
  20 O20            3.6620     3.3747    -0.0153 O.2     
  21 N21            4.8464     1.4961    -0.0460 N.am    
  22 C22           -4.1693    -4.7047     1.1975 C.1     
  23 N23           -4.0950    -5.6248     1.8596 N.1     
  24 C24            6.1083     2.2404    -0.0540 C.3     
  25 C25            7.2802     1.2571    -0.0764 C.3     
  26 C26            8.5980     2.0343    -0.0848 C.3     
  27 H27           -1.5524     0.6503    -2.2817 H       
  28 H28           -3.3186     0.5895    -2.0443 H       
  29 H29           -1.1997     2.9344     0.5850 H       
  30 H30            1.1800     3.1714     0.0114 H       
  31 H31            3.3503    -0.5224    -0.0494 H       
  32 H32            1.2543    -1.7586    -0.0314 H       
  33 H33           -4.6154    -0.4867    -1.8889 H       
  34 H34           -6.4303    -2.1321    -1.6587 H       
  35 H35           -2.2855    -2.8467     0.8489 H       
  36 H36            4.8554     0.5262    -0.0548 H       
  37 H37            6.1499     2.8755    -0.9388 H       
  38 H38            6.1706     2.8595     0.8410 H       
  39 H39            7.2386     0.6219     0.8084 H       
  40 H40            7.2179     0.6379    -0.9714 H       
  41 H41            8.6604     2.6535     0.8101 H       
  42 H42            9.4330     1.3338    -0.1008 H       
  43 H43            8.6397     2.6695    -0.9696 H       
@<TRIPOS>BOND
   1    1    2 ar
   2    1    8 ar
   3    1    7 1
   4    2    3 1
   5    2   11 ar
   6    3    4 2
   7    4    5 1
   8    4   12 1
   9    5    6 1
  10    5   27 1
  11    5   28 1
  12    6    7 am
  13    6   13 2
  14    7   29 1
  15    8    9 ar
  16    8   30 1
  17    9   10 ar
  18    9   19 1
  19   10   11 ar
  20   10   31 1
  21   11   32 1
  22   12   14 ar
  23   12   18 ar
  24   14   15 ar
  25   14   33 1
  26   15   16 ar
  27   15   34 1
  28   16   17 ar
  29   17   18 ar
  30   17   22 1
  31   18   35 1
  32   19   20 2
  33   19   21 am
  34   21   24 1
  35   21   36 1
  36   22   23 3
  37   24   25 1
  38   24   37 1
  39   24   38 1
  40   25   26 1
  41   25   39 1
  42   25   40 1
  43   26   41 1
  44   26   42 1
  45   26   43 1

#	End of record

