#	Name: ASD03330235
#	Creating user name:	WinNT
#	Creation time:	15. 06. 2019 20:36

#	Modifying user name:	WinNT
#	Modification time:	15. 06. 2019 20:36

#	Program:	/corina/corina34_cracker 3.40 0067  02.08.2006

@<TRIPOS>MOLECULE
ASD03330235
  51   53    0    0    0
SMALL
NO_CHARGES


@<TRIPOS>ATOM
   1 C1             1.2574     2.6415    -0.1789 C.3     
   2 N2             1.1897     1.1944     0.0687 N.3     
   3 C3             1.3795     0.4316    -1.1782 C.3     
   4 C4             2.6122     0.9607    -1.8648 C.2     
   5 N5             3.2014     2.1440    -1.5500 N.pl3   
   6 C6             2.7003     3.0451    -0.5083 C.3     
   7 C7             3.3369     0.4047    -2.8676 C.2     
   8 N8             4.3569     1.2464    -3.1523 N.2     
   9 C9             4.2806     2.2938    -2.3620 C.2     
  10 C10            5.2129     3.4427    -2.3574 C.ar    
  11 C11            6.0878     3.6391    -3.4261 C.ar    
  12 C12            3.0626    -0.8839    -3.5279 C.2     
  13 O13            2.1089    -1.5542    -3.1808 O.2     
  14 O14            3.1185    -1.4996    -7.2706 O.3     
  15 C15            2.5766    -2.3920    -6.2948 C.3     
  16 C16            3.5957    -2.6007    -5.1728 C.3     
  17 N17            3.8684    -1.3196    -4.5164 N.am    
  18 C18            4.8934    -3.1594    -5.7599 C.3     
  19 C19            5.5354    -2.1095    -6.6691 C.3     
  20 C20            5.8577    -3.5092    -4.6247 C.3     
  21 C21            4.5848    -4.4181    -6.5731 C.3     
  22 C22            6.9544     4.7127    -3.4160 C.ar    
  23 C23            6.9570     5.5933    -2.3491 C.ar    
  24 C24            6.0918     5.4040    -1.2862 C.ar    
  25 C25            5.2167     4.3373    -1.2868 C.ar    
  26 H26            0.6094     2.8964    -1.0175 H       
  27 H27            0.9252     3.1773     0.7103 H       
  28 H28            1.8606     0.9156     0.7689 H       
  29 H29            1.5115    -0.6254    -0.9471 H       
  30 H30            0.5124     0.5623    -1.8257 H       
  31 H31            2.7211     4.0731    -0.8701 H       
  32 H32            3.3199     2.9562     0.3841 H       
  33 H33            6.0870     2.9522    -4.2595 H       
  34 H34            2.5251    -1.3213    -8.0130 H       
  35 H35            1.6626    -1.9662    -5.8809 H       
  36 H36            2.3514    -3.3498    -6.7638 H       
  37 H37            3.1943    -3.3043    -4.4436 H       
  38 H38            4.6290    -0.7851    -4.7933 H       
  39 H39            5.5622    -1.1497    -6.1532 H       
  40 H40            6.5511    -2.4167    -6.9180 H       
  41 H41            4.9502    -2.0142    -7.5837 H       
  42 H42            5.4003    -4.2571    -3.9770 H       
  43 H43            6.7822    -3.9072    -5.0430 H       
  44 H44            6.0775    -2.6124    -4.0454 H       
  45 H45            3.8979    -4.1689    -7.3818 H       
  46 H46            5.5094    -4.8162    -6.9913 H       
  47 H47            4.1275    -5.1661    -5.9254 H       
  48 H48            7.6324     4.8657    -4.2426 H       
  49 H49            7.6375     6.4320    -2.3457 H       
  50 H50            6.0986     6.0950    -0.4562 H       
  51 H51            4.5418     4.1905    -0.4565 H       
@<TRIPOS>BOND
   1    1    2 1
   2    1    6 1
   3    1   26 1
   4    1   27 1
   5    2    3 1
   6    2   28 1
   7    3    4 1
   8    3   29 1
   9    3   30 1
  10    4    5 1
  11    4    7 2
  12    5    6 1
  13    5    9 1
  14    6   31 1
  15    6   32 1
  16    7    8 1
  17    7   12 1
  18    8    9 2
  19    9   10 1
  20   10   11 ar
  21   10   25 ar
  22   11   22 ar
  23   11   33 1
  24   12   13 2
  25   12   17 am
  26   14   15 1
  27   14   34 1
  28   15   16 1
  29   15   35 1
  30   15   36 1
  31   16   17 1
  32   16   18 1
  33   16   37 1
  34   17   38 1
  35   18   19 1
  36   18   20 1
  37   18   21 1
  38   19   39 1
  39   19   40 1
  40   19   41 1
  41   20   42 1
  42   20   43 1
  43   20   44 1
  44   21   45 1
  45   21   46 1
  46   21   47 1
  47   22   23 ar
  48   22   48 1
  49   23   24 ar
  50   23   49 1
  51   24   25 ar
  52   24   50 1
  53   25   51 1

#	End of record

