#	Name: ASD07980003
#	Creating user name:	WinNT
#	Creation time:	15. 06. 2019 21:14

#	Modifying user name:	WinNT
#	Modification time:	15. 06. 2019 21:14

#	Program:	/corina/corina34_cracker 3.40 0067  02.08.2006

@<TRIPOS>MOLECULE
ASD07980003
  12   11    0    0    0
SMALL
NO_CHARGES


@<TRIPOS>ATOM
   1 C1            -0.0179     1.4653     0.0101 C.2     
   2 C2             0.0021    -0.0041     0.0020 C.2     
   3 O3             1.1402     2.1551     0.0027 O.3     
   4 O4            -1.0785     2.0586     0.0184 O.2     
   5 C5            -1.1413    -0.6851     0.0093 C.2     
   6 C6            -1.1208    -2.1919     0.0010 C.3     
   7 H7             0.9446    -0.5313    -0.0098 H       
   8 H8             1.0765     3.1200     0.0085 H       
   9 H9            -2.0838    -0.1579     0.0211 H       
  10 H10           -0.5937    -2.5530     0.8841 H       
  11 H11           -2.1434    -2.5692     0.0087 H       
  12 H12           -0.6106    -2.5435    -0.8958 H       
@<TRIPOS>BOND
   1    1    2 1
   2    1    3 1
   3    1    4 2
   4    2    5 2
   5    2    7 1
   6    3    8 1
   7    5    6 1
   8    5    9 1
   9    6   10 1
  10    6   11 1
  11    6   12 1

#	End of record

