#	Name: ASD00840096
#	Creating user name:	WinNT
#	Creation time:	15. 06. 2019 18:37

#	Modifying user name:	WinNT
#	Modification time:	15. 06. 2019 18:37

#	Program:	/corina/corina34_cracker 3.40 0067  02.08.2006

@<TRIPOS>MOLECULE
ASD00840096
  23   24    0    0    0
SMALL
NO_CHARGES


@<TRIPOS>ATOM
   1 C1            -0.0167     1.3789     0.0096 C.ar    
   2 C2             0.0021    -0.0041     0.0020 C.ar    
   3 N3             1.1410    -0.6699    -0.0120 N.ar    
   4 C4             2.3057    -0.0555    -0.0198 C.ar    
   5 C5             2.3726     1.3389    -0.0129 C.ar    
   6 C6             1.1807     2.0727     0.0019 C.ar    
   7 C7             3.6797     2.0286    -0.0207 C.2     
   8 C8             4.8989     1.4273    -0.0346 C.2     
   9 C9             5.8599     2.4581    -0.0375 C.2     
  10 C10            5.1868     3.6252    -0.0254 C.2     
  11 O11            3.8698     3.3620    -0.0211 O.3     
  12 C12            5.8084     4.9980    -0.0230 C.3     
  13 N13            5.9987     5.4518    -1.4072 N.3     
  14 H14           -0.9560     1.9117     0.0170 H       
  15 H15           -0.9310    -0.5479     0.0080 H       
  16 H16            3.2168    -0.6352    -0.0312 H       
  17 H17            1.1952     3.1526     0.0072 H       
  18 H18            5.0934     0.3650    -0.0417 H       
  19 H19            6.9329     2.3357    -0.0473 H       
  20 H20            5.1519     5.6932     0.5002 H       
  21 H21            6.7733     4.9591     0.4825 H       
  22 H22            5.1277     5.4348    -1.9162 H       
  23 H23            6.4145     6.3708    -1.4325 H       
@<TRIPOS>BOND
   1    1    2 ar
   2    1    6 ar
   3    1   14 1
   4    2    3 ar
   5    2   15 1
   6    3    4 ar
   7    4    5 ar
   8    4   16 1
   9    5    6 ar
  10    5    7 1
  11    6   17 1
  12    7    8 2
  13    7   11 1
  14    8    9 1
  15    8   18 1
  16    9   10 2
  17    9   19 1
  18   10   11 1
  19   10   12 1
  20   12   13 1
  21   12   20 1
  22   12   21 1
  23   13   22 1
  24   13   23 1

#	End of record

