#	Name: ASD01814105
#	Creating user name:	WinNT
#	Creation time:	15. 06. 2019 19:31

#	Modifying user name:	WinNT
#	Modification time:	15. 06. 2019 19:31

#	Program:	/corina/corina34_cracker 3.40 0067  02.08.2006

@<TRIPOS>MOLECULE
ASD01814105
  55   59    0    0    0
SMALL
NO_CHARGES


@<TRIPOS>ATOM
   1 N1            -0.2546     2.4399     3.3087 N.2     
   2 C2            -0.3256     1.4588     4.1772 C.2     
   3 C3             0.7661     1.1718     5.0109 C.2     
   4 C4             1.8947     1.9169     4.9112 C.2     
   5 N5             1.9420     2.9321     3.9987 N.pl3   
   6 C6             0.8552     3.1825     3.2014 C.2     
   7 N7             2.9358     3.8574     3.6634 N.2     
   8 C8             2.4834     4.6409     2.7052 C.2     
   9 C9             1.1920     4.2562     2.3858 C.2     
  10 C10            2.8709     5.8078     1.8304 C.3     
  11 N11            1.7317     6.1095     0.9581 N.am    
  12 C12            0.6727     5.1510     1.2899 C.3     
  13 C13            1.6697     7.0829     0.0280 C.2     
  14 O14            0.6975     7.1700    -0.6970 O.2     
  15 C15            2.7815     8.0427    -0.1105 C.ar    
  16 C16            2.5183     9.4150    -0.2218 C.ar    
  17 C17            4.1027     7.5898    -0.1258 C.ar    
  18 C18            5.1369     8.4917    -0.2550 C.ar    
  19 C19            4.8724     9.8464    -0.3699 C.ar    
  20 C20            3.5711    10.3083    -0.3510 C.ar    
  21 O21            1.2395     9.8672    -0.2035 O.3     
  22 C22            1.0522    11.2839    -0.2068 C.3     
  23 C23           -0.5112    13.1371     0.3892 C.3     
  24 C24           -0.2883    11.6243     0.4502 C.3     
  25 C25            1.0491    11.7962    -1.6497 C.3     
  26 C26            0.7874    13.3041    -1.6499 C.3     
  27 N27           -0.5064    13.5777    -1.0116 N.3     
  28 C28            3.0806     1.6289     5.7955 C.3     
  29 Cl29           0.6723    -0.1257     6.1605 Cl      
  30 C30           -1.5849     0.6374     4.2801 C.3     
  31 O31           -0.2726    11.1990     1.8144 O.3     
  32 H32            3.1007     6.6741     2.4507 H       
  33 H33            3.7391     5.5443     1.2264 H       
  34 H34            0.4254     4.5544     0.4118 H       
  35 H35           -0.2125     5.6843     1.6366 H       
  36 H36            4.3136     6.5344    -0.0361 H       
  37 H37            6.1581     8.1405    -0.2663 H       
  38 H38            5.6889    10.5461    -0.4704 H       
  39 H39            3.3731    11.3665    -0.4370 H       
  40 H40            1.8615    11.7596     0.3470 H       
  41 H41           -1.4715    13.3814     0.8434 H       
  42 H42            0.2866    13.6439     0.9321 H       
  43 H43           -1.0933    11.1161    -0.0807 H       
  44 H44            2.0166    11.5947    -2.1095 H       
  45 H45            0.2652    11.2908    -2.2137 H       
  46 H46            1.5792    13.8101    -1.0975 H       
  47 H47            0.7704    13.6696    -2.6766 H       
  48 H48           -1.2615    13.1512    -1.5274 H       
  49 H49            2.8497     0.7891     6.4508 H       
  50 H50            3.9432     1.3808     5.1771 H       
  51 H51            3.3066     2.5086     6.3981 H       
  52 H52           -2.3174     1.0037     3.5609 H       
  53 H53           -1.3562    -0.4066     4.0661 H       
  54 H54           -1.9919     0.7210     5.2878 H       
  55 H55           -1.0911    11.3862     2.2942 H       
@<TRIPOS>BOND
   1    1    2 2
   2    1    6 1
   3    2    3 1
   4    2   30 1
   5    3    4 2
   6    3   29 1
   7    4    5 1
   8    4   28 1
   9    5    7 1
  10    5    6 1
  11    6    9 2
  12    7    8 2
  13    8   10 1
  14    8    9 1
  15    9   12 1
  16   10   11 1
  17   10   32 1
  18   10   33 1
  19   11   12 1
  20   11   13 am
  21   12   34 1
  22   12   35 1
  23   13   14 2
  24   13   15 1
  25   15   17 ar
  26   15   16 ar
  27   16   20 ar
  28   16   21 1
  29   17   18 ar
  30   17   36 1
  31   18   19 ar
  32   18   37 1
  33   19   20 ar
  34   19   38 1
  35   20   39 1
  36   21   22 1
  37   22   25 1
  38   22   24 1
  39   22   40 1
  40   23   24 1
  41   23   27 1
  42   23   41 1
  43   23   42 1
  44   24   31 1
  45   24   43 1
  46   25   26 1
  47   25   44 1
  48   25   45 1
  49   26   27 1
  50   26   46 1
  51   26   47 1
  52   27   48 1
  53   28   49 1
  54   28   50 1
  55   28   51 1
  56   30   52 1
  57   30   53 1
  58   30   54 1
  59   31   55 1

#	End of record

