#	Name: ASD01915508
#	Creating user name:	WinNT
#	Creation time:	15. 06. 2019 20:05

#	Modifying user name:	WinNT
#	Modification time:	15. 06. 2019 20:05

#	Program:	/corina/corina34_cracker 3.40 0067  02.08.2006

@<TRIPOS>MOLECULE
ASD01915508
  41   44    0    0    0
SMALL
NO_CHARGES


@<TRIPOS>ATOM
   1 C1            -0.0166     1.3727     0.0096 C.2     
   2 N2             0.0021    -0.0041     0.0020 N.pl3   
   3 C3            -1.2434    -0.7807    -0.0179 C.3     
   4 C4            -2.3411     0.0067     0.6954 C.3     
   5 N5            -2.4045     1.3988     0.2637 N.am    
   6 C6            -1.2813     2.1228     0.0393 C.2     
   7 C7             1.2844     1.7904    -0.0006 C.2     
   8 C8             2.0436     0.6124    -0.0024 C.2     
   9 N9             1.2133    -0.4043     0.0045 N.2     
  10 C10            3.5482     0.5278    -0.0114 C.3     
  11 O11            4.0995     1.8462    -0.0181 O.3     
  12 C12            5.4546     1.9483    -0.0266 C.ar    
  13 C13           -3.6543     2.0002     0.0765 C.ar    
  14 O14           -1.3171     3.3272    -0.1281 O.2     
  15 C15            6.0572     3.1979    -0.0334 C.ar    
  16 C16            6.2377     0.8031    -0.0229 C.ar    
  17 C17            7.6150     0.9096    -0.0317 C.ar    
  18 C18            8.2131     2.1561    -0.0442 C.ar    
  19 C19            7.4349     3.2990    -0.0422 C.ar    
  20 C20           -4.2762     2.6551     1.1309 C.ar    
  21 C21           -5.5098     3.2477     0.9432 C.ar    
  22 C22           -6.1264     3.1899    -0.2933 C.ar    
  23 C23           -5.5114     2.5385    -1.3465 C.ar    
  24 C24           -4.2735     1.9482    -1.1677 C.ar    
  25 F25           -3.6724     1.3117    -2.1966 F       
  26 H26           -1.5404    -0.9655    -1.0502 H       
  27 H27           -1.0875    -1.7314     0.4921 H       
  28 H28           -3.3017    -0.4681     0.4955 H       
  29 H29           -2.1536    -0.0209     1.7688 H       
  30 H30            1.6485     2.8071    -0.0064 H       
  31 H31            3.8876    -0.0034     0.8778 H       
  32 H32            3.8767    -0.0078    -0.9021 H       
  33 H33            5.4497     4.0909    -0.0322 H       
  34 H34            5.7710    -0.1708    -0.0128 H       
  35 H35            8.2251     0.0184    -0.0284 H       
  36 H36            9.2901     2.2373    -0.0511 H       
  37 H37            7.9045     4.2715    -0.0524 H       
  38 H38           -3.7962     2.7008     2.0972 H       
  39 H39           -5.9937     3.7568     1.7636 H       
  40 H40           -7.0909     3.6543    -0.4365 H       
  41 H41           -5.9960     2.4945    -2.3107 H       
@<TRIPOS>BOND
   1    1    2 1
   2    1    7 2
   3    1    6 1
   4    2    3 1
   5    2    9 1
   6    3    4 1
   7    3   26 1
   8    3   27 1
   9    4    5 1
  10    4   28 1
  11    4   29 1
  12    5    6 am
  13    5   13 1
  14    6   14 2
  15    7    8 1
  16    7   30 1
  17    8    9 2
  18    8   10 1
  19   10   11 1
  20   10   31 1
  21   10   32 1
  22   11   12 1
  23   12   15 ar
  24   12   16 ar
  25   13   20 ar
  26   13   24 ar
  27   15   19 ar
  28   15   33 1
  29   16   17 ar
  30   16   34 1
  31   17   18 ar
  32   17   35 1
  33   18   19 ar
  34   18   36 1
  35   19   37 1
  36   20   21 ar
  37   20   38 1
  38   21   22 ar
  39   21   39 1
  40   22   23 ar
  41   22   40 1
  42   23   24 ar
  43   23   41 1
  44   24   25 1

#	End of record

