#	Name: ASD02500834
#	Creating user name:	WinNT
#	Creation time:	15. 06. 2019 20:23

#	Modifying user name:	WinNT
#	Modification time:	15. 06. 2019 20:23

#	Program:	/corina/corina34_cracker 3.40 0067  02.08.2006

@<TRIPOS>MOLECULE
ASD02500834
  32   33    0    0    0
SMALL
NO_CHARGES


@<TRIPOS>ATOM
   1 C1            -0.0166     1.3754     0.0096 C.ar    
   2 C2             0.0021    -0.0041     0.0020 C.ar    
   3 C3             1.2212    -0.6854    -0.0133 C.ar    
   4 C4             2.4166     0.0339    -0.0209 C.ar    
   5 C5             2.3863     1.4193    -0.0132 C.ar    
   6 C6             1.1686     2.0876     0.0021 C.ar    
   7 N7             3.5851     2.1467    -0.0203 N.pl3   
   8 C8             4.2556     2.5657    -1.1338 C.2     
   9 C9             5.3590     3.2308    -0.7356 C.2     
  10 C10            5.3720     3.2233     0.6738 C.2     
  11 C11            4.2730     2.5589     1.0851 C.2     
  12 C12            3.8355     2.3256    -2.5610 C.3     
  13 C13            3.8772     2.3065     2.5171 C.3     
  14 C14            1.1391     3.5943     0.0105 C.3     
  15 C15            1.2448    -2.1626    -0.0210 C.2     
  16 O16            2.3062    -2.7530    -0.0343 O.2     
  17 O17            0.0891    -2.8548    -0.0132 O.3     
  18 H18           -0.9602     1.9008     0.0169 H       
  19 H19           -0.9257    -0.5569     0.0083 H       
  20 H20            3.3624    -0.4873    -0.0324 H       
  21 H21            6.0979     3.6855    -1.3788 H       
  22 H22            6.1226     3.6711     1.3082 H       
  23 H23            3.2007     3.1460    -2.8958 H       
  24 H24            4.7200     2.2684    -3.1954 H       
  25 H25            3.2819     1.3888    -2.6240 H       
  26 H26            3.2530     3.1268     2.8716 H       
  27 H27            3.3197     1.3720     2.5808 H       
  28 H28            4.7727     2.2382     3.1349 H       
  29 H29            1.1221     3.9631    -1.0151 H       
  30 H30            0.2472     3.9374     0.5348 H       
  31 H31            2.0267     3.9722     0.5178 H       
  32 H32            0.1551    -3.8195    -0.0187 H       
@<TRIPOS>BOND
   1    1    2 ar
   2    1    6 ar
   3    1   18 1
   4    2    3 ar
   5    2   19 1
   6    3    4 ar
   7    3   15 1
   8    4    5 ar
   9    4   20 1
  10    5    6 ar
  11    5    7 1
  12    6   14 1
  13    7    8 1
  14    7   11 1
  15    8    9 2
  16    8   12 1
  17    9   10 1
  18    9   21 1
  19   10   11 2
  20   10   22 1
  21   11   13 1
  22   12   23 1
  23   12   24 1
  24   12   25 1
  25   13   26 1
  26   13   27 1
  27   13   28 1
  28   14   29 1
  29   14   30 1
  30   14   31 1
  31   15   16 2
  32   15   17 1
  33   17   32 1

#	End of record

