#	Name: ASD00845343
#	Creating user name:	WinNT
#	Creation time:	15. 06. 2019 18:52

#	Modifying user name:	WinNT
#	Modification time:	15. 06. 2019 18:52

#	Program:	/corina/corina34_cracker 3.40 0067  02.08.2006

@<TRIPOS>MOLECULE
ASD00845343
 100  105    0    0    0
SMALL
NO_CHARGES


@<TRIPOS>ATOM
   1 F1            -0.0762    -3.1158     4.7249 F       
   2 C2            -0.0167     1.3829     0.0096 C.ar    
   3 C3             0.0021    -0.0041     0.0020 C.ar    
   4 C4             1.2143    -0.6791    -0.0132 C.ar    
   5 C5             2.3989     0.0312    -0.0207 C.ar    
   6 C6             2.3774     1.4139    -0.0126 C.ar    
   7 C7             1.1710     2.0888     0.0021 C.ar    
   8 C8             1.2384    -2.1858    -0.0210 C.3     
   9 C9             0.4954    -2.7217    -1.2260 C.2     
  10 O10            2.6067    -2.6714    -0.0100 O.3     
  11 C11            3.3978    -2.2930    -1.0317 C.2     
  12 N12            4.6788    -2.7088    -1.0818 N.am    
  13 O13            2.9568    -1.5767    -1.9085 O.2     
  14 C14            5.5543    -2.3043    -2.1903 C.3     
  15 C15            6.1658    -3.5603    -2.8192 C.3     
  16 C16            6.8652    -4.3809    -1.7331 C.3     
  17 C17            5.8417    -4.8164    -0.6819 C.3     
  18 C18            5.2282    -3.5702    -0.0259 C.3     
  19 N19            7.4812    -5.5694    -2.3382 N.3     
  20 C20            8.2628    -6.3204    -1.3459 C.3     
  21 C21            8.8209    -7.5895    -1.9944 C.3     
  22 N22            9.6539    -7.2214    -3.1477 N.3     
  23 C23            8.8723    -6.4703    -4.1400 C.3     
  24 C24            8.3143    -5.2013    -3.4915 C.3     
  25 C25           10.2700    -8.4098    -3.7528 C.3     
  26 O26            0.7745    -2.5251    -2.3899 O.2     
  27 N27           -0.5308    -3.4561    -0.7651 N.am    
  28 C28            0.4695    -2.7339     1.1599 C.ar    
  29 C29           -0.5756    -3.4845     0.6309 C.ar    
  30 C30            0.6376    -2.6093     2.5214 C.ar    
  31 C31           -0.2397    -3.2360     3.3892 C.ar    
  32 C32           -1.2963    -3.9947     2.8754 C.ar    
  33 C33           -1.4606    -4.1171     1.4959 C.ar    
  34 C34           -0.9792    -5.8526    -2.0419 C.ar    
  35 C35            0.2004    -6.0093    -2.7554 C.ar    
  36 C36           -1.6509    -6.9614    -1.5630 C.ar    
  37 C37           -1.1498    -8.2281    -1.7930 C.ar    
  38 C38            0.0298    -8.3901    -2.5062 C.ar    
  39 C39            0.7051    -7.2796    -2.9879 C.ar    
  40 O40            0.5219    -9.6365    -2.7325 O.3     
  41 O41            0.8603    -4.9187    -3.2264 O.3     
  42 C42           -0.2264   -10.7347    -2.2073 C.3     
  43 C43            2.0683    -5.1547    -3.9525 C.3     
  44 C44            2.6642    -3.8182    -4.3993 C.3     
  45 C45           11.0257    -8.0035    -5.0196 C.3     
  46 C46           11.2453    -9.0414    -2.7575 C.3     
  47 O47           -1.1648    -0.7006     0.0099 O.3     
  48 C48           -2.3744     0.0601     0.0260 C.3     
  49 C49           -3.5740    -0.8895     0.0328 C.3     
  50 F50           -3.5417    -1.6899    -1.1142 F       
  51 F51           -3.5190    -1.7022     1.1702 F       
  52 S52           -1.6174    -4.2383    -1.7397 S.o2    
  53 O53           -2.7973    -4.4114    -0.9671 O.2     
  54 O54           -1.5983    -3.5592    -2.9878 O.2     
  55 C55           -2.2089    -4.6466     3.7658 C.1     
  56 N56           -2.9329    -5.1638     4.4721 N.1     
  57 H57           -0.9590     1.9106     0.0170 H       
  58 H58            3.3426    -0.4937    -0.0325 H       
  59 H59            3.3047     1.9675    -0.0178 H       
  60 H60            1.1569     3.1687     0.0084 H       
  61 H61            4.9717    -1.7675    -2.9389 H       
  62 H62            6.3489    -1.6610    -1.8123 H       
  63 H63            5.3778    -4.1586    -3.2765 H       
  64 H64            6.8909    -3.2702    -3.5796 H       
  65 H65            7.6365    -3.7737    -1.2593 H       
  66 H66            5.0568    -5.4030    -1.1594 H       
  67 H67            6.3362    -5.4205     0.0789 H       
  68 H68            5.9977    -3.0326     0.5282 H       
  69 H69            4.4290    -3.8700     0.6520 H       
  70 H70            9.0864    -5.7024    -0.9883 H       
  71 H71            7.6212    -6.5923    -0.5078 H       
  72 H72            9.4249    -8.1335    -1.2683 H       
  73 H73            7.9967    -8.2202    -2.3277 H       
  74 H74            9.5140    -6.1984    -4.9782 H       
  75 H75            8.0487    -7.0883    -4.4976 H       
  76 H76            7.7102    -4.6573    -4.2176 H       
  77 H77            9.1385    -4.5706    -3.1583 H       
  78 H78            9.4938    -9.1311    -4.0084 H       
  79 H79            1.4553    -2.0220     2.9122 H       
  80 H80           -2.2766    -4.7032     1.0995 H       
  81 H81           -2.5689    -6.8374    -1.0078 H       
  82 H82           -1.6762    -9.0930    -1.4172 H       
  83 H83            1.6230    -7.4037    -3.5435 H       
  84 H84           -0.2982   -10.6404    -1.1238 H       
  85 H85           -1.2272   -10.7321    -2.6393 H       
  86 H86            0.2752   -11.6693    -2.4583 H       
  87 H87            2.7812    -5.6746    -3.3126 H       
  88 H88            1.8522    -5.7670    -4.8280 H       
  89 H89            1.9513    -3.2983    -5.0392 H       
  90 H90            2.8803    -3.2060    -3.5238 H       
  91 H91            3.5856    -3.9983    -4.9531 H       
  92 H92           11.4828    -8.8853    -5.4686 H       
  93 H93           10.3308    -7.5536    -5.7287 H       
  94 H94           11.8019    -7.2822    -4.7640 H       
  95 H95           10.7069    -9.3308    -1.8550 H       
  96 H96           11.7024    -9.9232    -3.2065 H       
  97 H97           12.0215    -8.3201    -2.5019 H       
  98 H98           -2.3995     0.6837     0.9196 H       
  99 H99           -2.4172     0.6932    -0.8603 H       
 100 H100          -4.4966    -0.3093     0.0451 H       
@<TRIPOS>BOND
   1    1   31 1
   2    2    3 ar
   3    2    7 ar
   4    2   57 1
   5    3    4 ar
   6    3   47 1
   7    4    5 ar
   8    4    8 1
   9    5    6 ar
  10    5   58 1
  11    6    7 ar
  12    6   59 1
  13    7   60 1
  14    8    9 1
  15    8   10 1
  16    8   28 1
  17    9   26 2
  18    9   27 am
  19   10   11 1
  20   11   12 am
  21   11   13 2
  22   12   14 1
  23   12   18 1
  24   14   15 1
  25   14   61 1
  26   14   62 1
  27   15   16 1
  28   15   63 1
  29   15   64 1
  30   16   17 1
  31   16   19 1
  32   16   65 1
  33   17   18 1
  34   17   66 1
  35   17   67 1
  36   18   68 1
  37   18   69 1
  38   19   20 1
  39   19   24 1
  40   20   21 1
  41   20   70 1
  42   20   71 1
  43   21   22 1
  44   21   72 1
  45   21   73 1
  46   22   23 1
  47   22   25 1
  48   23   24 1
  49   23   74 1
  50   23   75 1
  51   24   76 1
  52   24   77 1
  53   25   45 1
  54   25   46 1
  55   25   78 1
  56   27   52 am
  57   27   29 1
  58   28   29 ar
  59   28   30 ar
  60   29   33 ar
  61   30   31 ar
  62   30   79 1
  63   31   32 ar
  64   32   33 ar
  65   32   55 1
  66   33   80 1
  67   34   35 ar
  68   34   36 ar
  69   34   52 1
  70   35   41 1
  71   35   39 ar
  72   36   37 ar
  73   36   81 1
  74   37   38 ar
  75   37   82 1
  76   38   39 ar
  77   38   40 1
  78   39   83 1
  79   40   42 1
  80   41   43 1
  81   42   84 1
  82   42   85 1
  83   42   86 1
  84   43   44 1
  85   43   87 1
  86   43   88 1
  87   44   89 1
  88   44   90 1
  89   44   91 1
  90   45   92 1
  91   45   93 1
  92   45   94 1
  93   46   95 1
  94   46   96 1
  95   46   97 1
  96   47   48 1
  97   48   49 1
  98   48   98 1
  99   48   99 1
 100   49   50 1
 101   49   51 1
 102   49  100 1
 103   52   53 2
 104   52   54 2
 105   55   56 3

#	End of record

