#	Name: ASD05430128
#	Creating user name:	WinNT
#	Creation time:	15. 06. 2019 20:59

#	Modifying user name:	WinNT
#	Modification time:	15. 06. 2019 20:59

#	Program:	/corina/corina34_cracker 3.40 0067  02.08.2006

@<TRIPOS>MOLECULE
ASD05430128
  62   67    0    0    0
SMALL
NO_CHARGES


@<TRIPOS>ATOM
   1 C1             0.0135     1.5119    -0.0077 C.ar    
   2 C2            -0.0233     0.3325    -0.7508 C.ar    
   3 C3             1.1427    -0.1796    -1.3052 C.ar    
   4 C4             2.3414     0.4750    -1.1231 C.ar    
   5 C5             2.3859     1.6584    -0.3789 C.ar    
   6 C6             1.2122     2.1741     0.1787 C.ar    
   7 C7             4.8316     0.1388    -0.0611 C.3     
   8 C8             4.8127     1.6583    -0.1133 C.2     
   9 C9             3.6657     2.3589    -0.1829 C.2     
  10 C10            5.9031    -0.2870     0.9513 C.3     
  11 C11            7.3248     0.2081     0.6558 C.3     
  12 N12            7.2731     1.6395     0.3666 N.pl3   
  13 C13            6.1376     2.3162    -0.0832 C.2     
  14 C14            9.6314     2.1219    -0.0587 C.ar    
  15 C15           10.3665     2.8883    -0.9432 C.ar    
  16 C16           11.5629     2.4075    -1.4482 C.ar    
  17 C17           12.0224     1.1587    -1.0669 C.ar    
  18 C18           11.2853     0.3920    -0.1809 C.ar    
  19 C19           10.0921     0.8773     0.3272 C.ar    
  20 N20           -1.2396    -0.3379    -0.9384 N.pl3   
  21 C21           -1.7526    -0.7768    -2.1316 C.2     
  22 C22           -2.9328    -1.3641    -1.8562 C.2     
  23 N23           -3.1396    -1.2886    -0.5332 N.2     
  24 C24           -2.1301    -0.6807     0.0283 C.2     
  25 C25           -3.8610    -1.9964    -2.8611 C.3     
  26 N26            6.4430     3.5156    -0.4549 N.2     
  27 C27            8.3296     2.6464     0.4903 C.3     
  28 O28            7.8395     3.7379    -0.3161 O.3     
  29 C29            8.4955     3.0791     1.9484 C.3     
  30 O30            9.5308     4.0600     2.0393 O.3     
  31 C31           -1.0192     3.2249     1.2783 C.3     
  32 O32           -1.1307     2.0133     0.5288 O.3     
  33 C33            5.4849    -0.4030     2.4165 C.3     
  34 C34            5.7561    -1.6655     1.5955 C.3     
  35 F35           12.2810     3.1566    -2.3132 F       
  36 F36           11.7324    -0.8271     0.1919 F       
  37 H37            1.1098    -1.0933    -1.8801 H       
  38 H38            3.2466     0.0742    -1.5548 H       
  39 H39            1.2421     3.0878     0.7538 H       
  40 H40            3.8568    -0.2312     0.2566 H       
  41 H41            5.0752    -0.2607    -1.0455 H       
  42 H42            3.6843     3.4352    -0.0948 H       
  43 H43            7.9605     0.0333     1.5238 H       
  44 H44            7.7255    -0.3248    -0.2066 H       
  45 H45           10.0076     3.8625    -1.2409 H       
  46 H46           12.9552     0.7827    -1.4605 H       
  47 H47            9.5168     0.2793     1.0185 H       
  48 H48           -1.2978    -0.6715    -3.1054 H       
  49 H49           -2.0239    -0.4781     1.0838 H       
  50 H50           -3.6070    -3.0500    -2.9776 H       
  51 H51           -4.8897    -1.9071    -2.5119 H       
  52 H52           -3.7576    -1.4894    -3.8204 H       
  53 H53            7.5593     3.5045     2.3099 H       
  54 H54            8.7602     2.2140     2.5563 H       
  55 H55            9.6910     4.3806     2.9374 H       
  56 H56           -0.3441     3.0706     2.1201 H       
  57 H57           -0.6261     4.0138     0.6371 H       
  58 H58           -2.0024     3.5143     1.6493 H       
  59 H59            6.2196    -0.1271     3.1730 H       
  60 H60            4.4477    -0.1762     2.6634 H       
  61 H61            4.8973    -2.2692     1.3020 H       
  62 H62            6.6692    -2.2201     1.8117 H       
@<TRIPOS>BOND
   1    1    2 ar
   2    1    6 ar
   3    1   32 1
   4    2    3 ar
   5    2   20 1
   6    3    4 ar
   7    3   37 1
   8    4    5 ar
   9    4   38 1
  10    5    6 ar
  11    5    9 1
  12    6   39 1
  13    7    8 1
  14    7   10 1
  15    7   40 1
  16    7   41 1
  17    8    9 2
  18    8   13 1
  19    9   42 1
  20   10   11 1
  21   10   33 1
  22   10   34 1
  23   11   12 1
  24   11   43 1
  25   11   44 1
  26   12   13 1
  27   12   27 1
  28   13   26 2
  29   14   15 ar
  30   14   27 1
  31   14   19 ar
  32   15   16 ar
  33   15   45 1
  34   16   17 ar
  35   16   35 1
  36   17   18 ar
  37   17   46 1
  38   18   19 ar
  39   18   36 1
  40   19   47 1
  41   20   21 1
  42   20   24 1
  43   21   22 2
  44   21   48 1
  45   22   23 1
  46   22   25 1
  47   23   24 2
  48   24   49 1
  49   25   50 1
  50   25   51 1
  51   25   52 1
  52   26   28 1
  53   27   28 1
  54   27   29 1
  55   29   30 1
  56   29   53 1
  57   29   54 1
  58   30   55 1
  59   31   32 1
  60   31   56 1
  61   31   57 1
  62   31   58 1
  63   33   34 1
  64   33   59 1
  65   33   60 1
  66   34   61 1
  67   34   62 1

#	End of record

