#	Name: ASD01880336
#	Creating user name:	WinNT
#	Creation time:	15. 06. 2019 19:40

#	Modifying user name:	WinNT
#	Modification time:	15. 06. 2019 19:40

#	Program:	/corina/corina34_cracker 3.40 0067  02.08.2006

@<TRIPOS>MOLECULE
ASD01880336
  41   42    0    0    0
SMALL
NO_CHARGES


@<TRIPOS>ATOM
   1 C1             0.6905     1.7030     1.2841 C.ar    
   2 N2             0.6193     0.4052     1.0492 N.ar    
   3 C3            -0.5492    -0.2070     0.9277 C.ar    
   4 C4            -1.7393     0.5544     1.0539 C.ar    
   5 C5            -1.6074     1.9234     1.3022 C.ar    
   6 N6            -0.3814     2.4500     1.4138 N.ar    
   7 C7            -3.1297     0.1494     0.9672 C.2     
   8 C8            -4.0017     1.1245     1.1346 C.2     
   9 S9            -3.1999     2.6578     1.4192 S.3     
  10 C10           -5.4971     0.9440     1.0874 C.3     
  11 N11           -0.6078    -1.5668     0.6813 N.pl3   
  12 C12            0.6287    -2.3419     0.5526 C.3     
  13 C13            0.2856    -3.8086     0.2843 C.3     
  14 C14            0.7341    -6.1082     3.0622 C.2     
  15 C15            0.6484    -6.1989     1.7394 C.2     
  16 C16            1.7412    -5.6920     0.8950 C.2     
  17 C17            1.5576    -4.6059     0.1519 C.2     
  18 C18            1.8538    -5.3206     3.6925 C.3     
  19 C19            2.0470     2.3466     1.4135 C.3     
  20 C20            3.0690    -6.4044     0.8727 C.3     
  21 F21            3.7916    -6.0090    -0.2580 F       
  22 F22            3.7920    -6.0793     2.0254 F       
  23 F23            2.8559    -7.7865     0.8302 F       
  24 H24           -3.4276    -0.8716     0.7797 H       
  25 H25           -5.8675     0.7180     2.0873 H       
  26 H26           -5.9626     1.8611     0.7262 H       
  27 H27           -5.7429     0.1224     0.4146 H       
  28 H28           -1.4676    -2.0072     0.5937 H       
  29 H29            1.2190    -1.9494    -0.2754 H       
  30 H30            1.2028    -2.2661     1.4761 H       
  31 H31           -0.3047    -4.2010     1.1123 H       
  32 H32           -0.2885    -3.8844    -0.6392 H       
  33 H33            0.0014    -6.5988     3.6858 H       
  34 H34           -0.2235    -6.6449     1.2841 H       
  35 H35            2.3198    -4.2945    -0.5470 H       
  36 H36            2.8055    -5.8065     3.4777 H       
  37 H37            1.8616    -4.3099     3.2845 H       
  38 H38            1.7041    -5.2758     4.7712 H       
  39 H39            2.3839     2.6843     0.4334 H       
  40 H40            1.9814     3.1997     2.0889 H       
  41 H41            2.7567     1.6215     1.8118 H       
@<TRIPOS>BOND
   1    1    2 ar
   2    1   19 1
   3    1    6 ar
   4    2    3 ar
   5    3    4 ar
   6    3   11 1
   7    4    5 ar
   8    4    7 1
   9    5    6 ar
  10    5    9 1
  11    7    8 2
  12    7   24 1
  13    8    9 1
  14    8   10 1
  15   10   25 1
  16   10   26 1
  17   10   27 1
  18   11   12 1
  19   11   28 1
  20   12   13 1
  21   12   29 1
  22   12   30 1
  23   13   17 1
  24   13   31 1
  25   13   32 1
  26   14   15 2
  27   14   18 1
  28   14   33 1
  29   15   16 1
  30   15   34 1
  31   16   17 2
  32   16   20 1
  33   17   35 1
  34   18   36 1
  35   18   37 1
  36   18   38 1
  37   19   39 1
  38   19   40 1
  39   19   41 1
  40   20   21 1
  41   20   22 1
  42   20   23 1

#	End of record

