#	Name: ASD09080147
#	Creating user name:	WinNT
#	Creation time:	15. 06. 2019 21:20

#	Modifying user name:	WinNT
#	Modification time:	15. 06. 2019 21:20

#	Program:	/corina/corina34_cracker 3.40 0067  02.08.2006

@<TRIPOS>MOLECULE
ASD09080147
  67   70    0    0    0
SMALL
NO_CHARGES


@<TRIPOS>ATOM
   1 C1            -0.2998    -0.1531    -2.9763 C.3     
   2 C2            -3.8281   -10.2054    -0.1243 C.ar    
   3 C3            -3.4189   -10.9428    -1.2219 C.ar    
   4 C4            -2.9084   -10.3044    -2.3389 C.ar    
   5 C5            -2.8059    -8.9269    -2.3635 C.ar    
   6 C6            -3.2165    -8.1803    -1.2612 C.ar    
   7 C7            -3.7345    -8.8273    -0.1413 C.ar    
   8 Cl8           -4.4668   -11.0134     1.2732 Cl      
   9 Cl9           -2.3961   -11.2361    -3.7111 Cl      
  10 C10           -3.1076    -6.7005    -1.2821 C.ar    
  11 C11           -3.5182    -5.9536    -0.1799 C.ar    
  12 C12           -3.4146    -4.5775    -0.2047 C.ar    
  13 C13           -2.9036    -3.9399    -1.3207 C.ar    
  14 C14           -2.4945    -4.6765    -2.4177 C.ar    
  15 C15           -2.5891    -6.0533    -2.4018 C.ar    
  16 C16           -2.7925    -2.4371    -1.3417 C.3     
  17 C17           -1.4272    -2.0189    -0.7924 C.3     
  18 C18           -1.3613    -0.4933    -0.6970 C.3     
  19 C19           -1.5422     0.1131    -2.0900 C.3     
  20 O20           -1.5547     1.5596    -2.0280 O.3     
  21 C21           -1.1121     1.9870    -3.3272 C.3     
  22 O22           -0.3289     0.9404    -3.9157 O.3     
  23 C23           -2.3250     2.2812    -4.2123 C.3     
  24 C24           -0.2610     3.2510    -3.1901 C.3     
  25 O25           -2.4003    -0.0247     0.1650 O.3     
  26 C26           -3.1523     1.4403     1.9077 C.ar    
  27 C27           -3.1785     0.8668     3.1652 C.ar    
  28 C28           -4.2007     1.1738     4.0437 C.ar    
  29 C29           -5.1964     2.0546     3.6649 C.ar    
  30 C30           -5.1697     2.6289     2.4077 C.ar    
  31 C31           -4.1483     2.3208     1.5287 C.ar    
  32 C32           -2.0346     1.1104     0.9522 C.3     
  33 O33           -0.3983    -2.4863    -1.6671 O.3     
  34 C34            0.4330    -4.5195    -0.1975 C.3     
  35 S35            0.8698    -2.9282    -0.9508 S.o2    
  36 O36            1.8155    -3.1137    -1.9950 O.2     
  37 O37            1.0688    -1.9402     0.0509 O.2     
  38 H38            0.6121    -0.1245    -2.3799 H       
  39 H39           -0.3932    -1.1080    -3.4936 H       
  40 H40           -3.4977   -12.0198    -1.2065 H       
  41 H41           -2.4072    -8.4297    -3.2354 H       
  42 H42           -4.0545    -8.2528     0.7155 H       
  43 H43           -3.9174    -6.4505     0.6920 H       
  44 H44           -3.7329    -3.9976     0.6490 H       
  45 H45           -2.0969    -4.1735    -3.2868 H       
  46 H46           -2.2694    -6.6275    -3.2588 H       
  47 H47           -2.8972    -2.0794    -2.3660 H       
  48 H48           -3.5803    -2.0059    -0.7239 H       
  49 H49           -1.2861    -2.4514     0.1981 H       
  50 H50           -0.3932    -0.1959    -0.2941 H       
  51 H51           -2.4478    -0.2656    -2.5637 H       
  52 H52           -2.9245     3.0694    -3.7568 H       
  53 H53           -1.9865     2.6051    -5.1965 H       
  54 H54           -2.9279     1.3789    -4.3141 H       
  55 H55            0.6058     3.0392    -2.5641 H       
  56 H56            0.0731     3.5728    -4.1765 H       
  57 H57           -0.8555     4.0415    -2.7321 H       
  58 H58           -2.4006     0.1786     3.4611 H       
  59 H59           -4.2216     0.7251     5.0259 H       
  60 H60           -5.9954     2.2939     4.3510 H       
  61 H61           -5.9480     3.3165     2.1115 H       
  62 H62           -4.1278     2.7689     0.5463 H       
  63 H63           -1.1292     0.8852     1.5160 H       
  64 H64           -1.8525     1.9629     0.2979 H       
  65 H65            0.1401    -5.2225    -0.9774 H       
  66 H66            1.2934    -4.9141     0.3428 H       
  67 H67           -0.3971    -4.3782     0.4946 H       
@<TRIPOS>BOND
   1    1   19 1
   2    1   22 1
   3    1   38 1
   4    1   39 1
   5    2    3 ar
   6    2    8 1
   7    2    7 ar
   8    3    4 ar
   9    3   40 1
  10    4    5 ar
  11    4    9 1
  12    5    6 ar
  13    5   41 1
  14    6    7 ar
  15    6   10 1
  16    7   42 1
  17   10   11 ar
  18   10   15 ar
  19   11   12 ar
  20   11   43 1
  21   12   13 ar
  22   12   44 1
  23   13   14 ar
  24   13   16 1
  25   14   15 ar
  26   14   45 1
  27   15   46 1
  28   16   17 1
  29   16   47 1
  30   16   48 1
  31   17   18 1
  32   17   33 1
  33   17   49 1
  34   18   25 1
  35   18   19 1
  36   18   50 1
  37   19   20 1
  38   19   51 1
  39   20   21 1
  40   21   22 1
  41   21   23 1
  42   21   24 1
  43   23   52 1
  44   23   53 1
  45   23   54 1
  46   24   55 1
  47   24   56 1
  48   24   57 1
  49   25   32 1
  50   26   27 ar
  51   26   31 ar
  52   26   32 1
  53   27   28 ar
  54   27   58 1
  55   28   29 ar
  56   28   59 1
  57   29   30 ar
  58   29   60 1
  59   30   31 ar
  60   30   61 1
  61   31   62 1
  62   32   63 1
  63   32   64 1
  64   33   35 1
  65   34   35 1
  66   34   65 1
  67   34   66 1
  68   34   67 1
  69   35   36 2
  70   35   37 2

#	End of record

