#	Name: ASD07930514
#	Creating user name:	WinNT
#	Creation time:	15. 06. 2019 21:12

#	Modifying user name:	WinNT
#	Modification time:	15. 06. 2019 21:12

#	Program:	/corina/corina34_cracker 3.40 0067  02.08.2006

@<TRIPOS>MOLECULE
ASD07930514
  46   48    0    0    0
SMALL
NO_CHARGES


@<TRIPOS>ATOM
   1 C1            -0.0341     1.4581     0.0423 C.3     
   2 N2             0.7954    -0.4135    -2.1303 N.2     
   3 N3            -0.8903    -1.7835    -1.2686 N.pl3   
   4 C4            -0.9149    -2.8271    -0.2383 C.3     
   5 C5            -1.2299    -2.1885     1.1214 C.3     
   6 S6             0.0063    -0.8913     1.4433 S.o2    
   7 N7            -0.0139    -0.0067     0.0314 N.am    
   8 C8            -0.0112    -0.7260    -1.1553 C.2     
   9 C9             0.4501    -3.5154    -0.1756 C.3     
  10 C10           -1.9764    -3.8423    -0.5755 C.ar    
  11 C11           -2.8068    -3.6377    -1.6601 C.ar    
  12 C12           -3.7854    -4.5730    -1.9715 C.ar    
  13 C13           -3.9275    -5.7128    -1.1915 C.ar    
  14 C14           -3.0942    -5.9145    -0.1061 C.ar    
  15 C15           -2.1144    -4.9815     0.1987 C.ar    
  16 O16           -0.4575     0.0117     2.4376 O.2     
  17 O17            1.3141    -1.4441     1.5002 O.2     
  18 F18           -1.3007    -5.1795     1.2588 F       
  19 N19           -4.6274    -4.3665    -3.0696 N.am    
  20 C20           -5.0477    -5.4160    -3.8034 C.2     
  21 O21           -4.6193    -6.5295    -3.5721 O.2     
  22 C22           -6.0320    -5.2122    -4.8920 C.ar    
  23 N23           -6.4901    -3.9911    -5.1407 N.ar    
  24 C24           -7.3628    -3.7603    -6.0951 C.ar    
  25 C25           -7.8443    -4.8051    -6.8905 C.ar    
  26 C26           -7.3832    -6.1060    -6.6566 C.ar    
  27 F27           -3.2311    -7.0230     0.6538 F       
  28 C28           -8.7959    -4.5479    -7.9291 C.1     
  29 C29           -6.4604    -6.3041    -5.6452 C.ar    
  30 N30           -9.5509    -4.3438    -8.7531 N.1     
  31 H31            0.9884     1.8356     0.0392 H       
  32 H32           -0.5580     1.8208    -0.8421 H       
  33 H33           -0.5478     1.8077     0.9378 H       
  34 H34            1.4072     0.3330    -2.0333 H       
  35 H35           -1.4883    -1.8387    -2.0304 H       
  36 H36           -2.2269    -1.7484     1.0986 H       
  37 H37           -1.1799    -2.9460     1.9036 H       
  38 H38            1.2166    -2.7805     0.0703 H       
  39 H39            0.4311    -4.2908     0.5902 H       
  40 H40            0.6749    -3.9652    -1.1426 H       
  41 H41           -2.6955    -2.7505    -2.2657 H       
  42 H42           -4.6880    -6.4410    -1.4317 H       
  43 H43           -4.9087    -3.4679    -3.3029 H       
  44 H44           -7.7125    -2.7531    -6.2671 H       
  45 H45           -7.7363    -6.9339    -7.2535 H       
  46 H46           -6.0793    -7.2934    -5.4391 H       
@<TRIPOS>BOND
   1    1    7 1
   2    1   31 1
   3    1   32 1
   4    1   33 1
   5    2    8 2
   6    2   34 1
   7    3    4 1
   8    3    8 1
   9    3   35 1
  10    4    5 1
  11    4    9 1
  12    4   10 1
  13    5    6 1
  14    5   36 1
  15    5   37 1
  16    6    7 am
  17    6   16 2
  18    6   17 2
  19    7    8 1
  20    9   38 1
  21    9   39 1
  22    9   40 1
  23   10   11 ar
  24   10   15 ar
  25   11   12 ar
  26   11   41 1
  27   12   13 ar
  28   12   19 1
  29   13   14 ar
  30   13   42 1
  31   14   15 ar
  32   14   27 1
  33   15   18 1
  34   19   20 am
  35   19   43 1
  36   20   21 2
  37   20   22 1
  38   22   29 ar
  39   22   23 ar
  40   23   24 ar
  41   24   25 ar
  42   24   44 1
  43   25   26 ar
  44   25   28 1
  45   26   29 ar
  46   26   45 1
  47   28   30 3
  48   29   46 1

#	End of record

