#	Name: ASD01910333
#	Creating user name:	WinNT
#	Creation time:	15. 06. 2019 19:55

#	Modifying user name:	WinNT
#	Modification time:	15. 06. 2019 19:55

#	Program:	/corina/corina34_cracker 3.40 0067  02.08.2006

@<TRIPOS>MOLECULE
ASD01910333
  48   50    0    0    0
SMALL
NO_CHARGES


@<TRIPOS>ATOM
   1 C1             0.0453     1.4680    -0.1288 C.3     
   2 C2             0.0540    -0.0039    -0.1123 C.1     
   3 C3             0.0610    -1.1778    -0.0992 C.1     
   4 C4             0.0695    -2.6097    -0.0832 C.ar    
   5 C5            -1.0056    -3.3084     0.4716 C.ar    
   6 C6            -0.9976    -4.6843     0.4870 C.ar    
   7 C7             0.0860    -5.3828    -0.0522 C.ar    
   8 C8             1.1614    -4.6837    -0.6070 C.ar    
   9 C9             1.1504    -3.3079    -0.6274 C.ar    
  10 C10            0.0951    -6.8595    -0.0352 C.2     
  11 O11           -0.8642    -7.4781    -0.4538 O.2     
  12 N12            1.1667    -7.5214     0.4443 N.am    
  13 C13            1.1579    -8.9872     0.5448 C.3     
  14 C14            1.5176    -9.3853     1.9797 C.3     
  15 C15            2.8488    -8.7368     2.3662 C.3     
  16 C16            2.7123    -7.2136     2.3073 C.3     
  17 C17            2.3682    -6.7913     0.8709 C.3     
  18 O18            3.2035    -9.1320     3.6929 O.3     
  19 C19            1.3290     1.9783    -0.7865 C.3     
  20 C20            1.3199     3.5082    -0.8036 C.3     
  21 C21            0.1089     4.0021    -1.5976 C.3     
  22 C22           -1.1748     3.4918    -0.9399 C.3     
  23 C23           -1.1657     1.9619    -0.9228 C.3     
  24 H24           -0.0130     1.8424     0.8932 H       
  25 H25           -1.8430    -2.7686     0.8886 H       
  26 H26           -1.8286    -5.2244     0.9162 H       
  27 H27            1.9990    -5.2233    -1.0237 H       
  28 H28            1.9813    -2.7676    -1.0565 H       
  29 H29            0.1652    -9.3643     0.2989 H       
  30 H30            1.8910    -9.4051    -0.1451 H       
  31 H31            0.7361    -9.0442     2.6586 H       
  32 H32            1.6088   -10.4695     2.0444 H       
  33 H33            3.6249    -9.0589     1.6719 H       
  34 H34            1.9195    -6.8930     2.9832 H       
  35 H35            3.6538    -6.7522     2.6053 H       
  36 H36            3.2015    -7.0305     0.2102 H       
  37 H37            2.1725    -5.7194     0.8422 H       
  38 H38            4.0386    -8.7575     4.0049 H       
  39 H39            2.1917     1.6264    -0.2209 H       
  40 H40            1.3872     1.6039    -1.8085 H       
  41 H41            1.2616     3.8826     0.2184 H       
  42 H42            2.2344     3.8717    -1.2722 H       
  43 H43            0.1024     5.0921    -1.6098 H       
  44 H44            0.1671     3.6277    -2.6196 H       
  45 H45           -1.2331     3.8663     0.0821 H       
  46 H46           -2.0376     3.8437    -1.5055 H       
  47 H47           -1.1075     1.5875    -1.9448 H       
  48 H48           -2.0803     1.5984    -0.4542 H       
@<TRIPOS>BOND
   1    1    2 1
   2    1   19 1
   3    1   23 1
   4    1   24 1
   5    2    3 3
   6    3    4 1
   7    4    5 ar
   8    4    9 ar
   9    5    6 ar
  10    5   25 1
  11    6    7 ar
  12    6   26 1
  13    7    8 ar
  14    7   10 1
  15    8    9 ar
  16    8   27 1
  17    9   28 1
  18   10   11 2
  19   10   12 am
  20   12   13 1
  21   12   17 1
  22   13   14 1
  23   13   29 1
  24   13   30 1
  25   14   15 1
  26   14   31 1
  27   14   32 1
  28   15   16 1
  29   15   18 1
  30   15   33 1
  31   16   17 1
  32   16   34 1
  33   16   35 1
  34   17   36 1
  35   17   37 1
  36   18   38 1
  37   19   20 1
  38   19   39 1
  39   19   40 1
  40   20   21 1
  41   20   41 1
  42   20   42 1
  43   21   22 1
  44   21   43 1
  45   21   44 1
  46   22   23 1
  47   22   45 1
  48   22   46 1
  49   23   47 1
  50   23   48 1

#	End of record

