#	Name: ASD01812776
#	Creating user name:	WinNT
#	Creation time:	15. 06. 2019 19:29

#	Modifying user name:	WinNT
#	Modification time:	15. 06. 2019 19:29

#	Program:	/corina/corina34_cracker 3.40 0067  02.08.2006

@<TRIPOS>MOLECULE
ASD01812776
  46   49    0    0    0
SMALL
NO_CHARGES


@<TRIPOS>ATOM
   1 C1             0.0575     1.4301    -0.6135 C.ar    
   2 C2             0.1011     0.0678    -0.8329 C.ar    
   3 C3             1.2831    -0.6332    -0.6468 C.ar    
   4 C4             2.4190     0.0257    -0.2429 C.ar    
   5 C5             2.3933     1.4052    -0.0165 C.ar    
   6 C6             1.1962     2.1092    -0.2055 C.ar    
   7 C7             3.8293    -0.4261     0.0437 C.3     
   8 N8             4.5723     0.7763     0.4379 N.am    
   9 C9             3.7392     1.8305     0.4016 C.2     
  10 C10            5.9886     0.8205     0.8101 C.3     
  11 C11            6.8239     1.0647    -0.4201 C.ar    
  12 C12            6.9524     2.3471    -0.9260 C.ar    
  13 C13            7.7203     2.5712    -2.0559 C.ar    
  14 C14            8.3586     1.5128    -2.6786 C.ar    
  15 C15            8.2287     0.2309    -2.1708 C.ar    
  16 C16            7.4663     0.0092    -1.0398 C.ar    
  17 O17            1.1515     3.4479     0.0091 O.3     
  18 O18            4.0525     2.9729     0.6756 O.2     
  19 F19            9.1079     1.7300    -3.7816 F       
  20 C20           -0.1276     4.0779    -0.0868 C.3     
  21 F21            6.3284     3.3793    -0.3174 F       
  22 C22           -0.1309     5.3598     0.7517 C.3     
  23 C23           -1.4791     6.0661     0.5793 C.3     
  24 C24           -1.7143     6.3439    -0.9077 C.3     
  25 O25           -1.6681     5.1140    -1.6339 O.3     
  26 C26           -0.4150     4.4325    -1.5480 C.3     
  27 O27            0.0637     5.0308     2.1287 O.3     
  28 H28           -0.8657     1.9700    -0.7644 H       
  29 H29           -0.7894    -0.4543    -1.1504 H       
  30 H30            1.3107    -1.6990    -0.8193 H       
  31 H31            3.8324    -1.1519     0.8568 H       
  32 H32            4.2719    -0.8634    -0.8514 H       
  33 H33            6.1512     1.6265     1.5256 H       
  34 H34            6.2754    -0.1293     1.2614 H       
  35 H35            7.8208     3.5712    -2.4514 H       
  36 H36            8.7267    -0.5952    -2.6565 H       
  37 H37            7.3688    -0.9902    -0.6422 H       
  38 H38           -0.8965     3.3992     0.2824 H       
  39 H39            0.6709     6.0173     0.4157 H       
  40 H40           -2.2761     5.4280     0.9611 H       
  41 H41           -1.4701     7.0075     1.1287 H       
  42 H42           -2.6916     6.8080    -1.0407 H       
  43 H43           -0.9396     7.0147    -1.2792 H       
  44 H44            0.3768     5.0782    -1.9279 H       
  45 H45           -0.4562     3.5196    -2.1423 H       
  46 H46            0.0726     5.7970     2.7186 H       
@<TRIPOS>BOND
   1    1    2 ar
   2    1    6 ar
   3    1   28 1
   4    2    3 ar
   5    2   29 1
   6    3    4 ar
   7    3   30 1
   8    4    7 1
   9    4    5 ar
  10    5    6 ar
  11    5    9 1
  12    6   17 1
  13    7    8 1
  14    7   31 1
  15    7   32 1
  16    8    9 am
  17    8   10 1
  18    9   18 2
  19   10   11 1
  20   10   33 1
  21   10   34 1
  22   11   12 ar
  23   11   16 ar
  24   12   13 ar
  25   12   21 1
  26   13   14 ar
  27   13   35 1
  28   14   15 ar
  29   14   19 1
  30   15   16 ar
  31   15   36 1
  32   16   37 1
  33   17   20 1
  34   20   22 1
  35   20   26 1
  36   20   38 1
  37   22   23 1
  38   22   27 1
  39   22   39 1
  40   23   24 1
  41   23   40 1
  42   23   41 1
  43   24   25 1
  44   24   42 1
  45   24   43 1
  46   25   26 1
  47   26   44 1
  48   26   45 1
  49   27   46 1

#	End of record

