#	Name: ASD03331122
#	Creating user name:	WinNT
#	Creation time:	15. 06. 2019 20:38

#	Modifying user name:	WinNT
#	Modification time:	15. 06. 2019 20:38

#	Program:	/corina/corina34_cracker 3.40 0067  02.08.2006

@<TRIPOS>MOLECULE
ASD03331122
  66   68    0    0    0
SMALL
NO_CHARGES


@<TRIPOS>ATOM
   1 N1             0.0600     1.1545    -0.7655 N.pl3   
   2 C2             0.0645    -0.1787    -0.4986 C.2     
   3 C3             1.2857    -1.0115    -0.2081 C.3     
   4 N4             2.1196    -0.3148     0.7838 N.3     
   5 C5             3.0712     0.5893     0.1352 C.3     
   6 C6             2.4735     1.1929    -1.1325 C.3     
   7 C7             1.2386     2.0256    -0.7779 C.3     
   8 C8            -1.2332     1.5192    -1.0032 C.2     
   9 N9            -1.9980     0.4609    -0.8711 N.2     
  10 C10           -1.2278    -0.6038    -0.5569 C.2     
  11 C11           -1.7015    -1.9789    -0.3202 C.2     
  12 O12           -0.9065    -2.8567    -0.0431 O.2     
  13 N13           -3.0157    -2.2639    -0.4106 N.am    
  14 C14            2.8135    -1.2732     1.6543 C.3     
  15 C15           -1.6959     2.8803    -1.3512 C.ar    
  16 C16           -2.5964     3.0680    -2.4033 C.ar    
  17 C17           -3.0239     4.3431    -2.7223 C.ar    
  18 C18           -2.5619     5.4302    -2.0029 C.ar    
  19 C19           -1.6704     5.2497    -0.9604 C.ar    
  20 C20           -1.2400     3.9818    -0.6270 C.ar    
  21 C21           -1.1725     6.4408    -0.1830 C.3     
  22 F22           -1.7482     7.6074    -0.6976 F       
  23 F23           -1.5270     6.3004     1.1631 F       
  24 F24            0.2199     6.5203    -0.2927 F       
  25 F25           -3.0472     2.0064    -3.1069 F       
  26 C26           -4.7919    -3.8441    -0.8976 C.2     
  27 C27           -3.4866    -3.6311    -0.1752 C.3     
  28 C28           -3.6926    -3.8483     1.3252 C.3     
  29 C29           -4.7888    -2.9083     1.8308 C.3     
  30 O30           -5.4267    -2.8908    -1.2967 O.2     
  31 C31           -4.1080    -5.2989     1.5782 C.3     
  32 C32           -2.3870    -3.5548     2.0670 C.3     
  33 N33           -5.2539    -5.0939    -1.1000 N.am    
  34 C34           -6.5606    -5.2987    -1.7299 C.3     
  35 C35           -6.8437    -6.7982    -1.8413 C.3     
  36 H36            0.9804    -1.9799     0.1883 H       
  37 H37            1.8552    -1.1556    -1.1262 H       
  38 H38            3.3306     1.3916     0.8259 H       
  39 H39            3.9732     0.0346    -0.1231 H       
  40 H40            3.2145     1.8307    -1.6144 H       
  41 H41            2.1872     0.3925    -1.8148 H       
  42 H42            1.1031     2.8114    -1.5211 H       
  43 H43            1.3714     2.4731     0.2071 H       
  44 H44           -3.6497    -1.5639    -0.6316 H       
  45 H45            3.3986    -1.9610     1.0438 H       
  46 H46            3.4764    -0.7349     2.3317 H       
  47 H47            2.0805    -1.8349     2.2334 H       
  48 H48           -3.7198     4.4908    -3.5350 H       
  49 H49           -2.8983     6.4247    -2.2563 H       
  50 H50           -0.5478     3.8430     0.1903 H       
  51 H51           -2.7460    -4.3394    -0.5466 H       
  52 H52           -5.7190    -3.1174     1.3023 H       
  53 H53           -4.9356    -3.0631     2.8997 H       
  54 H54           -4.4929    -1.8749     1.6505 H       
  55 H55           -3.3171    -5.9678     1.2387 H       
  56 H56           -4.2769    -5.4478     2.6447 H       
  57 H57           -5.0259    -5.5147     1.0313 H       
  58 H58           -2.0911    -2.5214     1.8867 H       
  59 H59           -2.5338    -3.7096     3.1359 H       
  60 H60           -1.6061    -4.2245     1.7068 H       
  61 H61           -4.7213    -5.8578    -0.8286 H       
  62 H62           -7.3341    -4.8270    -1.1239 H       
  63 H63           -6.5577    -4.8546    -2.7254 H       
  64 H64           -6.0702    -7.2699    -2.4474 H       
  65 H65           -6.8465    -7.2423    -0.8459 H       
  66 H66           -7.8159    -6.9506    -2.3100 H       
@<TRIPOS>BOND
   1    1    2 1
   2    1    7 1
   3    1    8 1
   4    2    3 1
   5    2   10 2
   6    3    4 1
   7    3   36 1
   8    3   37 1
   9    4    5 1
  10    4   14 1
  11    5    6 1
  12    5   38 1
  13    5   39 1
  14    6    7 1
  15    6   40 1
  16    6   41 1
  17    7   42 1
  18    7   43 1
  19    8    9 2
  20    8   15 1
  21    9   10 1
  22   10   11 1
  23   11   12 2
  24   11   13 am
  25   13   27 1
  26   13   44 1
  27   14   45 1
  28   14   46 1
  29   14   47 1
  30   15   16 ar
  31   15   20 ar
  32   16   17 ar
  33   16   25 1
  34   17   18 ar
  35   17   48 1
  36   18   19 ar
  37   18   49 1
  38   19   20 ar
  39   19   21 1
  40   20   50 1
  41   21   22 1
  42   21   23 1
  43   21   24 1
  44   26   30 2
  45   26   33 am
  46   26   27 1
  47   27   28 1
  48   27   51 1
  49   28   29 1
  50   28   31 1
  51   28   32 1
  52   29   52 1
  53   29   53 1
  54   29   54 1
  55   31   55 1
  56   31   56 1
  57   31   57 1
  58   32   58 1
  59   32   59 1
  60   32   60 1
  61   33   34 1
  62   33   61 1
  63   34   35 1
  64   34   62 1
  65   34   63 1
  66   35   64 1
  67   35   65 1
  68   35   66 1

#	End of record

