#	Name: ASD08830002
#	Creating user name:	WinNT
#	Creation time:	15. 06. 2019 21:19

#	Modifying user name:	WinNT
#	Modification time:	15. 06. 2019 21:19

#	Program:	/corina/corina34_cracker 3.40 0067  02.08.2006

@<TRIPOS>MOLECULE
ASD08830002
  41   43    0    0    0
SMALL
NO_CHARGES


@<TRIPOS>ATOM
   1 C1            -0.0168     1.3891     0.0097 C.ar    
   2 C2             0.0021    -0.0041     0.0020 C.ar    
   3 C3             1.1784    -0.6890    -0.0125 C.ar    
   4 C4             2.3935     0.0164    -0.0203 C.ar    
   5 C5             2.3742     1.4337    -0.0130 C.ar    
   6 C6             1.1405     2.1058     0.0025 C.ar    
   7 C7             3.6277    -0.6558    -0.0347 C.ar    
   8 C8             4.7846     0.0608    -0.0415 C.ar    
   9 C9             4.7657     1.4544    -0.0344 C.ar    
  10 C10            3.5898     2.1393    -0.0205 C.ar    
  11 C11            6.0670     2.2144    -0.0424 C.3     
  12 C12            6.6465     2.2482     1.3732 C.3     
  13 C13            7.9012     3.1236     1.3899 C.3     
  14 N14            8.4576     3.1561     2.7491 N.3     
  15 C15            9.7856     3.7868     2.7598 C.3     
  16 C16            8.5177     1.8053     3.3261 C.3     
  17 C17            9.0460     1.8921     4.7605 C.3     
  18 O18           10.3232     2.5357     4.7546 O.3     
  19 C19           10.3012     3.8536     4.1998 C.3     
  20 O20            6.9909     1.5676    -0.9200 O.3     
  21 H21           -0.9639     1.9082     0.0170 H       
  22 H22           -0.9305    -0.5487     0.0080 H       
  23 H23            1.1776    -1.7690    -0.0176 H       
  24 H24            1.1105     3.1854     0.0078 H       
  25 H25            3.6578    -1.7354    -0.0400 H       
  26 H26            5.7317    -0.4582    -0.0522 H       
  27 H27            3.5906     3.2192    -0.0155 H       
  28 H28            5.8907     3.2332    -0.3873 H       
  29 H29            5.9065     2.6607     2.0590 H       
  30 H30            6.9055     1.2361     1.6841 H       
  31 H31            8.6412     2.7111     0.7041 H       
  32 H32            7.6422     4.1358     1.0790 H       
  33 H33           10.4735     3.1970     2.1539 H       
  34 H34            9.7130     4.7950     2.3520 H       
  35 H35            7.5197     1.3672     3.3318 H       
  36 H36            9.1853     1.1839     2.7293 H       
  37 H37            8.3506     2.4688     5.3702 H       
  38 H38            9.1463     0.8880     5.1727 H       
  39 H39           11.3092     4.2682     4.2065 H       
  40 H40            9.6423     4.4874     4.7933 H       
  41 H41            7.1949     0.6552    -0.6733 H       
@<TRIPOS>BOND
   1    1    2 ar
   2    1    6 ar
   3    1   21 1
   4    2    3 ar
   5    2   22 1
   6    3    4 ar
   7    3   23 1
   8    4    5 ar
   9    4    7 ar
  10    5    6 ar
  11    5   10 ar
  12    6   24 1
  13    7    8 ar
  14    7   25 1
  15    8    9 ar
  16    8   26 1
  17    9   10 ar
  18    9   11 1
  19   10   27 1
  20   11   12 1
  21   11   20 1
  22   11   28 1
  23   12   13 1
  24   12   29 1
  25   12   30 1
  26   13   14 1
  27   13   31 1
  28   13   32 1
  29   14   15 1
  30   14   16 1
  31   15   19 1
  32   15   33 1
  33   15   34 1
  34   16   17 1
  35   16   35 1
  36   16   36 1
  37   17   18 1
  38   17   37 1
  39   17   38 1
  40   18   19 1
  41   19   39 1
  42   19   40 1
  43   20   41 1

#	End of record

