#	Name: ASD01230868
#	Creating user name:	WinNT
#	Creation time:	15. 06. 2019 19:15

#	Modifying user name:	WinNT
#	Modification time:	15. 06. 2019 19:15

#	Program:	/corina/corina34_cracker 3.40 0067  02.08.2006

@<TRIPOS>MOLECULE
ASD01230868
  36   39    0    0    0
SMALL
NO_CHARGES


@<TRIPOS>ATOM
   1 S1            -0.0204     1.6504     0.0111 S.o2    
   2 N2             0.0021    -0.0041     0.0020 N.am    
   3 C3             1.0228    -0.6873    -0.4557 C.2     
   4 N4             2.1690    -0.1517    -0.9710 N.pl3   
   5 C5             2.3936     1.2855    -1.1470 C.3     
   6 C6             1.7501     2.0749    -0.0035 C.3     
   7 C7             0.8949    -2.1591    -0.3950 C.2     
   8 C8             1.9458    -2.9421    -0.8229 C.2     
   9 C9             3.1042    -2.3190    -1.3057 C.2     
  10 C10            3.1909    -0.9787    -1.3645 C.2     
  11 C11           -0.3060    -3.5283     1.2851 C.ar    
  12 C12           -0.3447    -2.7834     0.1187 C.ar    
  13 C13           -1.5519    -2.6151    -0.5812 C.ar    
  14 C14           -2.7024    -3.1773    -0.1301 C.ar    
  15 C15           -2.6965    -3.9399     1.0518 C.ar    
  16 C16           -3.8745    -4.5307     1.5390 C.ar    
  17 C17           -3.8377    -5.2630     2.6860 C.ar    
  18 C18           -2.6468    -5.4377     3.3885 C.ar    
  19 C19           -1.4858    -4.8809     2.9479 C.ar    
  20 C20           -1.4845    -4.1174     1.7665 C.ar    
  21 O21           -0.6346     2.0064    -1.2198 O.2     
  22 O22           -0.6110     1.9931     1.2573 O.2     
  23 H23            3.4655     1.4826    -1.1611 H       
  24 H24            1.9576     1.6041    -2.0937 H       
  25 H25            1.8743     3.1443    -0.1744 H       
  26 H26            2.2074     1.7939     0.9452 H       
  27 H27            1.8773    -4.0193    -0.7863 H       
  28 H28            3.9375    -2.9225    -1.6341 H       
  29 H29            4.1021    -0.5345    -1.7370 H       
  30 H30            0.6246    -3.6584     1.8174 H       
  31 H31           -1.5645    -2.0307    -1.4893 H       
  32 H32           -3.6223    -3.0388    -0.6787 H       
  33 H33           -4.8052    -4.4042     1.0060 H       
  34 H34           -4.7454    -5.7153     3.0574 H       
  35 H35           -2.6453    -6.0232     4.2961 H       
  36 H36           -0.5703    -5.0242     3.5026 H       
@<TRIPOS>BOND
   1    1    2 am
   2    1    6 1
   3    1   21 2
   4    1   22 2
   5    2    3 2
   6    3    4 1
   7    3    7 1
   8    4    5 1
   9    4   10 1
  10    5    6 1
  11    5   23 1
  12    5   24 1
  13    6   25 1
  14    6   26 1
  15    7    8 2
  16    7   12 1
  17    8    9 1
  18    8   27 1
  19    9   10 2
  20    9   28 1
  21   10   29 1
  22   11   12 ar
  23   11   20 ar
  24   11   30 1
  25   12   13 ar
  26   13   14 ar
  27   13   31 1
  28   14   15 ar
  29   14   32 1
  30   15   16 ar
  31   15   20 ar
  32   16   17 ar
  33   16   33 1
  34   17   18 ar
  35   17   34 1
  36   18   19 ar
  37   18   35 1
  38   19   20 ar
  39   19   36 1

#	End of record

