#	Name: ASD01209236
#	Creating user name:	WinNT
#	Creation time:	15. 06. 2019 19:11

#	Modifying user name:	WinNT
#	Modification time:	15. 06. 2019 19:11

#	Program:	/corina/corina34_cracker 3.40 0067  02.08.2006

@<TRIPOS>MOLECULE
ASD01209236
  68   70    0    0    0
SMALL
NO_CHARGES


@<TRIPOS>ATOM
   1 O1            -0.0372     1.4727     0.0332 O.3     
   2 O2             2.1215     2.1201     1.3872 O.3     
   3 C3             0.2775     6.2723    -9.5731 C.ar    
   4 C4             1.6488     6.4461    -9.6943 C.ar    
   5 C5             2.4736     6.2759    -8.5922 C.ar    
   6 C6             1.9309     5.9323    -7.3648 C.ar    
   7 C7             0.5526     5.7566    -7.2384 C.ar    
   8 C8            -0.2740     5.9336    -8.3488 C.ar    
   9 O9             3.8162     6.4469    -8.7165 O.3     
  10 C10           -0.0310     5.3895    -5.9309 C.2     
  11 N11            0.7686     5.2240    -4.8586 N.am    
  12 O12           -1.2321     5.2368    -5.8227 O.2     
  13 C13            0.2203     4.8790    -3.6300 C.2     
  14 P14            1.3060     2.3603     0.0200 P.3     
  15 O15            2.1470     1.9653    -1.1320 O.2     
  16 C16            0.8675     4.1239    -0.1241 C.3     
  17 N17            0.8974     4.6963    -2.5396 N.2     
  18 S18           -1.4466     4.6407    -3.3338 S.3     
  19 C19           -1.1052     4.2770    -1.6442 C.2     
  20 C20            0.2130     4.3714    -1.4588 C.2     
  21 O21           -0.5261     6.4403   -10.6562 O.3     
  22 C22           -1.9113     6.1308   -10.4905 C.3     
  23 C23           -2.5195     5.7713   -11.8476 C.3     
  24 O24           -2.4876     6.9162   -12.7022 O.3     
  25 C25           -3.0353     6.6868   -14.0019 C.3     
  26 C26           -2.6395     7.3452    -9.9109 C.3     
  27 C27            4.3079     6.8011   -10.0106 C.3     
  28 C28            5.8069     6.9468    -9.9558 C.2     
  29 N29            6.7063     5.9862   -10.1697 N.2     
  30 N30            6.4753     8.0432    -9.6944 N.2     
  31 N31            7.7322     7.7619    -9.7412 N.pl3   
  32 N32            7.8745     6.5148   -10.0293 N.2     
  33 C33            8.8244     8.7100    -9.5077 C.3     
  34 C34            2.6962     0.8600     1.7395 C.3     
  35 C35            3.3958     0.9797     3.0949 C.3     
  36 C36           -0.0258     0.0438     0.0321 C.3     
  37 C37           -1.4641    -0.4777     0.0466 C.3     
  38 H38            2.0752     6.7143   -10.6497 H       
  39 H39            2.5739     5.7993    -6.5074 H       
  40 H40           -1.3414     5.7985    -8.2554 H       
  41 H41            1.7271     5.3458    -4.9449 H       
  42 H42            0.1766     4.3930     0.6749 H       
  43 H43            1.7697     4.7304    -0.0439 H       
  44 H44           -1.8355     4.0253    -0.8894 H       
  45 H45           -2.0159     5.2856    -9.8101 H       
  46 H46           -1.9449     4.9635   -12.3008 H       
  47 H47           -3.5518     5.4497   -11.7094 H       
  48 H48           -4.0783     6.3842   -13.9085 H       
  49 H49           -2.9741     7.6031   -14.5890 H       
  50 H50           -2.4713     5.8980   -14.4998 H       
  51 H51           -2.2062     7.6013    -8.9440 H       
  52 H52           -2.5349     8.1904   -10.5912 H       
  53 H53           -3.6961     7.1091    -9.7845 H       
  54 H54            4.0446     6.0214   -10.7253 H       
  55 H55            3.8623     7.7456   -10.3226 H       
  56 H56            9.0810     8.7150    -8.4484 H       
  57 H57            9.6954     8.4117   -10.0911 H       
  58 H58            8.5093     9.7087    -9.8100 H       
  59 H59            1.9106     0.1070     1.8013 H       
  60 H60            3.4218     0.5668     0.9807 H       
  61 H61            2.6703     1.2729     3.8536 H       
  62 H62            3.8342     0.0185     3.3636 H       
  63 H63            4.1814     1.7327     3.0331 H       
  64 H64            0.4817    -0.3148    -0.8633 H       
  65 H65            0.5000    -0.3160     0.9165 H       
  66 H66           -1.4554    -1.5677     0.0458 H       
  67 H67           -1.9716    -0.1191     0.9421 H       
  68 H68           -1.9899    -0.1179    -0.8378 H       
@<TRIPOS>BOND
   1    1   36 1
   2    1   14 1
   3    2   34 1
   4    2   14 1
   5    3    4 ar
   6    3   21 1
   7    3    8 ar
   8    4    5 ar
   9    4   38 1
  10    5    6 ar
  11    5    9 1
  12    6    7 ar
  13    6   39 1
  14    7    8 ar
  15    7   10 1
  16    8   40 1
  17    9   27 1
  18   10   11 am
  19   10   12 2
  20   11   13 1
  21   11   41 1
  22   13   17 2
  23   13   18 1
  24   14   15 2
  25   14   16 1
  26   16   20 1
  27   16   42 1
  28   16   43 1
  29   17   20 1
  30   18   19 1
  31   19   20 2
  32   19   44 1
  33   21   22 1
  34   22   23 1
  35   22   26 1
  36   22   45 1
  37   23   24 1
  38   23   46 1
  39   23   47 1
  40   24   25 1
  41   25   48 1
  42   25   49 1
  43   25   50 1
  44   26   51 1
  45   26   52 1
  46   26   53 1
  47   27   28 1
  48   27   54 1
  49   27   55 1
  50   28   29 1
  51   28   30 2
  52   29   32 2
  53   30   31 1
  54   31   32 1
  55   31   33 1
  56   33   56 1
  57   33   57 1
  58   33   58 1
  59   34   35 1
  60   34   59 1
  61   34   60 1
  62   35   61 1
  63   35   62 1
  64   35   63 1
  65   36   37 1
  66   36   64 1
  67   36   65 1
  68   37   66 1
  69   37   67 1
  70   37   68 1

#	End of record

