#	Name: ASD05130035
#	Creating user name:	WinNT
#	Creation time:	15. 06. 2019 20:56

#	Modifying user name:	WinNT
#	Modification time:	15. 06. 2019 20:56

#	Program:	/corina/corina34_cracker 3.40 0067  02.08.2006

@<TRIPOS>MOLECULE
ASD05130035
  52   55    0    0    0
SMALL
NO_CHARGES


@<TRIPOS>ATOM
   1 N1            -0.0111     1.3312     0.0130 N.am    
   2 C2            -1.0293     1.7964    -0.7376 C.2     
   3 O3            -0.9133     2.8498    -1.3337 O.2     
   4 N4            -2.1760     1.0939    -0.8275 N.am    
   5 C5            -3.2671     1.6219    -1.5273 C.ar    
   6 C6            -3.0571     2.3825    -2.6670 C.ar    
   7 C7            -4.1480     2.9065    -3.3609 C.ar    
   8 C8            -5.4443     2.6611    -2.9024 C.ar    
   9 C9            -5.6422     1.9028    -1.7669 C.ar    
  10 C10           -4.5610     1.3789    -1.0827 C.ar    
  11 C11           -3.9395     3.6936    -4.5389 C.1     
  12 N12           -3.7741     4.3180    -5.4734 N.1     
  13 C13            1.2127     2.0108     0.0310 C.ar    
  14 C14            1.2376     3.3954    -0.0358 C.ar    
  15 C15            2.4577     4.0678    -0.0176 C.ar    
  16 C16            3.6479     3.3432     0.0677 C.ar    
  17 C17            3.6130     1.9641     0.1338 C.ar    
  18 C18            2.4018     1.2979     0.1214 C.ar    
  19 N19            2.9181     7.5619    -1.3966 N.am    
  20 C20            2.8875     6.2164    -1.3304 C.2     
  21 C21            2.4919     5.5474    -0.0891 C.2     
  22 C22            2.1538     6.2976     1.0041 C.2     
  23 C23            2.1942     7.7089     0.9098 C.ar    
  24 C24            1.8563     8.5156     2.0035 C.ar    
  25 N25            1.8987     9.8259     1.8989 N.ar    
  26 C26            2.2572    10.4352     0.7737 C.ar    
  27 C27            2.6080     9.7118    -0.3574 C.ar    
  28 C28            2.5799     8.3233    -0.3017 C.ar    
  29 O29            3.1892     5.5539    -2.3072 O.2     
  30 N30            2.2809    11.8214     0.7288 N.pl3   
  31 C31            2.6739    12.5078    -0.5043 C.3     
  32 C32            3.3208     8.2191    -2.6424 C.3     
  33 Cl33           5.1713     4.1753     0.0903 Cl      
  34 H34           -0.1275     0.5277     0.5438 H       
  35 H35           -2.2452     0.2225    -0.4071 H       
  36 H36           -2.0523     2.5690    -3.0163 H       
  37 H37           -6.2917     3.0651    -3.4364 H       
  38 H38           -6.6452     1.7140    -1.4138 H       
  39 H39           -4.7224     0.7820    -0.1972 H       
  40 H40            0.3139     3.9511    -0.1020 H       
  41 H41            4.5345     1.4047     0.1994 H       
  42 H42            2.3799     0.2196     0.1777 H       
  43 H43            1.8596     5.8190     1.9265 H       
  44 H44            1.5593     8.0599     2.9365 H       
  45 H45            2.8972    10.2192    -1.2658 H       
  46 H46            2.0372    12.3363     1.5139 H       
  47 H47            1.9920    12.2299    -1.3080 H       
  48 H48            2.6325    13.5859    -0.3491 H       
  49 H49            3.6898    12.2182    -0.7733 H       
  50 H50            3.5552     7.4637    -3.3924 H       
  51 H51            2.5057     8.8473    -3.0018 H       
  52 H52            4.2012     8.8354    -2.4599 H       
@<TRIPOS>BOND
   1    1    2 am
   2    1   13 1
   3    1   34 1
   4    2    3 2
   5    2    4 am
   6    4    5 1
   7    4   35 1
   8    5    6 ar
   9    5   10 ar
  10    6    7 ar
  11    6   36 1
  12    7    8 ar
  13    7   11 1
  14    8    9 ar
  15    8   37 1
  16    9   10 ar
  17    9   38 1
  18   10   39 1
  19   11   12 3
  20   13   14 ar
  21   13   18 ar
  22   14   15 ar
  23   14   40 1
  24   15   16 ar
  25   15   21 1
  26   16   17 ar
  27   16   33 1
  28   17   18 ar
  29   17   41 1
  30   18   42 1
  31   19   20 am
  32   19   28 1
  33   19   32 1
  34   20   21 1
  35   20   29 2
  36   21   22 2
  37   22   23 1
  38   22   43 1
  39   23   24 ar
  40   23   28 ar
  41   24   25 ar
  42   24   44 1
  43   25   26 ar
  44   26   27 ar
  45   26   30 1
  46   27   28 ar
  47   27   45 1
  48   30   31 1
  49   30   46 1
  50   31   47 1
  51   31   48 1
  52   31   49 1
  53   32   50 1
  54   32   51 1
  55   32   52 1

#	End of record

