#	Name: ASD01883019
#	Creating user name:	WinNT
#	Creation time:	15. 06. 2019 19:45

#	Modifying user name:	WinNT
#	Modification time:	15. 06. 2019 19:45

#	Program:	/corina/corina34_cracker 3.40 0067  02.08.2006

@<TRIPOS>MOLECULE
ASD01883019
  53   55    0    0    0
SMALL
NO_CHARGES


@<TRIPOS>ATOM
   1 N1            -0.7128     2.3856    -0.3603 N.am    
   2 C2            -0.5331     1.0842    -0.6525 C.2     
   3 C3            -1.6294     0.1887    -0.5937 C.2     
   4 C4            -2.8910     0.6898    -0.2270 C.2     
   5 C5            -3.0144     2.0620     0.0671 C.2     
   6 C6            -1.9304     2.8675    -0.0009 C.2     
   7 O7             0.5718     0.6764    -0.9680 O.2     
   8 C8            -1.4561    -1.1990    -0.9019 C.1     
   9 N9            -1.3187    -2.2998    -1.1464 N.1     
  10 C10            0.4299     3.2999    -0.4253 C.3     
  11 C11            0.5324     3.8887    -1.8338 C.3     
  12 C12           -5.7832    -1.2753     1.1409 C.ar    
  13 C13           -4.6888    -0.4402     1.0755 C.ar    
  14 C14           -4.0644    -0.2053    -0.1521 C.ar    
  15 C15           -4.5523    -0.8181    -1.3085 C.ar    
  16 C16           -5.6470    -1.6518    -1.2351 C.ar    
  17 C17           -6.2621    -1.8880    -0.0123 C.ar    
  18 O18           -7.3406    -2.7102     0.0556 O.3     
  19 C19           -9.0763    -3.2529    -3.2304 C.3     
  20 O20           -9.7517    -4.4472    -2.8309 O.3     
  21 C21           -8.9405    -5.3530    -2.0802 C.3     
  22 C22           -8.4770    -4.6714    -0.7901 C.3     
  23 C23           -7.7137    -3.3914    -1.1439 C.3     
  24 C24           -8.6183    -2.4870    -1.9866 C.3     
  25 Cl25          -6.5604    -1.5685     2.6653 Cl      
  26 C26            1.9039     5.3360    -3.3394 C.3     
  27 C27            1.7259     4.8436    -1.9018 C.3     
  28 C28            1.4755     6.0392    -0.9805 C.3     
  29 H29           -3.9735     2.4697     0.3506 H       
  30 H30           -2.0370     3.9178     0.2271 H       
  31 H31            0.2923     4.1054     0.2960 H       
  32 H32            1.3448     2.7553    -0.1917 H       
  33 H33            0.6700     3.0832    -2.5552 H       
  34 H34           -0.3824     4.4333    -2.0674 H       
  35 H35           -4.3146     0.0321     1.9718 H       
  36 H36           -4.0724    -0.6385    -2.2591 H       
  37 H37           -6.0245    -2.1259    -2.1291 H       
  38 H38           -8.2090    -3.5117    -3.8379 H       
  39 H39           -9.7547    -2.6290    -3.8123 H       
  40 H40           -9.5211    -6.2419    -1.8333 H       
  41 H41           -8.0714    -5.6392    -2.6726 H       
  42 H42           -9.3439    -4.4213    -0.1785 H       
  43 H43           -7.8222    -5.3450    -0.2372 H       
  44 H44           -6.8198    -3.6456    -1.7135 H       
  45 H45           -8.0645    -1.5983    -2.2894 H       
  46 H46           -9.4880    -2.1927    -1.3992 H       
  47 H47            1.0020     5.8582    -3.6589 H       
  48 H48            2.7541     6.0163    -3.3878 H       
  49 H49            2.0822     4.4842    -3.9957 H       
  50 H50            2.6277     4.3214    -1.5823 H       
  51 H51            0.5737     6.5615    -1.3000 H       
  52 H52            1.3488     5.6885     0.0437 H       
  53 H53            2.3258     6.7196    -1.0289 H       
@<TRIPOS>BOND
   1    1    2 am
   2    1   10 1
   3    1    6 1
   4    2    3 1
   5    2    7 2
   6    3    4 2
   7    3    8 1
   8    4    5 1
   9    4   14 1
  10    5    6 2
  11    5   29 1
  12    6   30 1
  13    8    9 3
  14   10   11 1
  15   10   31 1
  16   10   32 1
  17   11   27 1
  18   11   33 1
  19   11   34 1
  20   12   13 ar
  21   12   25 1
  22   12   17 ar
  23   13   14 ar
  24   13   35 1
  25   14   15 ar
  26   15   16 ar
  27   15   36 1
  28   16   17 ar
  29   16   37 1
  30   17   18 1
  31   18   23 1
  32   19   20 1
  33   19   24 1
  34   19   38 1
  35   19   39 1
  36   20   21 1
  37   21   22 1
  38   21   40 1
  39   21   41 1
  40   22   23 1
  41   22   42 1
  42   22   43 1
  43   23   24 1
  44   23   44 1
  45   24   45 1
  46   24   46 1
  47   26   27 1
  48   26   47 1
  49   26   48 1
  50   26   49 1
  51   27   28 1
  52   27   50 1
  53   28   51 1
  54   28   52 1
  55   28   53 1

#	End of record

