#	Name: ASD01917078
#	Creating user name:	WinNT
#	Creation time:	15. 06. 2019 20:08

#	Modifying user name:	WinNT
#	Modification time:	15. 06. 2019 20:08

#	Program:	/corina/corina34_cracker 3.40 0067  02.08.2006

@<TRIPOS>MOLECULE
ASD01917078
  66   70    0    0    0
SMALL
NO_CHARGES


@<TRIPOS>ATOM
   1 C1             0.1622     1.1591    -0.1763 C.2     
   2 N2             0.0563    -0.1349    -0.3883 N.2     
   3 N3            -1.3087    -0.4529    -0.3014 N.pl3   
   4 C4            -1.9555     0.7059    -0.0346 C.2     
   5 N5            -1.0567     1.6649     0.0428 N.2     
   6 C6             1.4294     1.9316    -0.1743 C.ar    
   7 C7             1.4104     3.3043     0.0642 C.ar    
   8 C8             2.6420     1.2852    -0.4050 C.ar    
   9 C9             3.8179     2.0071    -0.4018 C.ar    
  10 C10            3.7940     3.3728    -0.1695 C.ar    
  11 C11            2.5909     4.0186     0.0657 C.ar    
  12 F12            4.9476     4.0759    -0.1667 F       
  13 C13           -1.9133    -1.7769    -0.4675 C.3     
  14 C14           -1.9541    -2.4812     0.8642 C.2     
  15 N15           -2.4721    -3.7221     0.9546 N.am    
  16 O16           -1.5208    -1.9313     1.8545 O.2     
  17 C17           -2.5216    -4.4273     2.2444 C.3     
  18 C18           -3.9502    -4.9351     2.4670 C.3     
  19 N19           -4.3695    -5.7324     1.3067 N.3     
  20 C20           -4.4125    -4.9156     0.0864 C.3     
  21 C21           -3.0085    -4.4047    -0.2327 C.3     
  22 C22           -5.5954    -6.3447     1.5398 C.ar    
  23 N23           -6.2118    -6.1596     2.6968 N.ar    
  24 C24           -7.3765    -6.7223     2.9582 C.ar    
  25 C25           -7.9972    -7.5302     2.0270 C.ar    
  26 C26           -7.3839    -7.7500     0.8005 C.ar    
  27 C27           -6.1666    -7.1420     0.5529 C.ar    
  28 C28           -3.4150     0.8658     0.1436 C.ar    
  29 C29           -4.0029     2.1240     0.0052 C.ar    
  30 C30           -5.3634     2.2691     0.1715 C.ar    
  31 C31           -6.1491     1.1652     0.4766 C.ar    
  32 C32           -5.5676    -0.0884     0.6151 C.ar    
  33 C33           -4.2084    -0.2421     0.4450 C.ar    
  34 O34           -7.4895     1.3120     0.6402 O.3     
  35 C35           -8.0033     2.6454     0.6205 C.3     
  36 C36           -8.4476     2.9997    -0.8000 C.3     
  37 C37           -9.1997     2.7450     1.5689 C.3     
  38 H38            0.4731     3.8085     0.2472 H       
  39 H39            2.6616     0.2207    -0.5858 H       
  40 H40            4.7582     1.5069    -0.5802 H       
  41 H41            2.5767     5.0833     0.2463 H       
  42 H42           -2.9274    -1.6676    -0.8519 H       
  43 H43           -1.3196    -2.3619    -1.1699 H       
  44 H44           -1.8316    -5.2710     2.2271 H       
  45 H45           -2.2471    -3.7427     3.0468 H       
  46 H46           -3.9806    -5.5540     3.3638 H       
  47 H47           -4.6232    -4.0863     2.5875 H       
  48 H48           -4.7782    -5.5204    -0.7434 H       
  49 H49           -5.0792    -4.0670     0.2401 H       
  50 H50           -3.0540    -3.7068    -1.0688 H       
  51 H51           -2.3624    -5.2446    -0.4879 H       
  52 H52           -7.8500    -6.5488     3.9132 H       
  53 H53           -8.9500    -7.9872     2.2501 H       
  54 H54           -7.8489    -8.3784     0.0553 H       
  55 H55           -5.6621    -7.2911    -0.3903 H       
  56 H56           -3.3926     2.9829    -0.2317 H       
  57 H57           -5.8191     3.2425     0.0649 H       
  58 H58           -6.1816    -0.9445     0.8528 H       
  59 H59           -3.7569    -1.2172     0.5529 H       
  60 H60           -7.2262     3.3389     0.9418 H       
  61 H61           -8.8395     4.0167    -0.8151 H       
  62 H62           -7.5953     2.9287    -1.4757 H       
  63 H63           -9.2247     2.3061    -1.1213 H       
  64 H64           -8.8831     2.4925     2.5809 H       
  65 H65           -9.5916     3.7620     1.5539 H       
  66 H66           -9.9767     2.0514     1.2477 H       
@<TRIPOS>BOND
   1    1    2 2
   2    1    6 1
   3    1    5 1
   4    2    3 1
   5    3    4 1
   6    3   13 1
   7    4    5 2
   8    4   28 1
   9    6    7 ar
  10    6    8 ar
  11    7   11 ar
  12    7   38 1
  13    8    9 ar
  14    8   39 1
  15    9   10 ar
  16    9   40 1
  17   10   11 ar
  18   10   12 1
  19   11   41 1
  20   13   14 1
  21   13   42 1
  22   13   43 1
  23   14   15 am
  24   14   16 2
  25   15   17 1
  26   15   21 1
  27   17   18 1
  28   17   44 1
  29   17   45 1
  30   18   19 1
  31   18   46 1
  32   18   47 1
  33   19   20 1
  34   19   22 1
  35   20   21 1
  36   20   48 1
  37   20   49 1
  38   21   50 1
  39   21   51 1
  40   22   23 ar
  41   22   27 ar
  42   23   24 ar
  43   24   25 ar
  44   24   52 1
  45   25   26 ar
  46   25   53 1
  47   26   27 ar
  48   26   54 1
  49   27   55 1
  50   28   29 ar
  51   28   33 ar
  52   29   30 ar
  53   29   56 1
  54   30   31 ar
  55   30   57 1
  56   31   32 ar
  57   31   34 1
  58   32   33 ar
  59   32   58 1
  60   33   59 1
  61   34   35 1
  62   35   36 1
  63   35   37 1
  64   35   60 1
  65   36   61 1
  66   36   62 1
  67   36   63 1
  68   37   64 1
  69   37   65 1
  70   37   66 1

#	End of record

