#	Name: ASD07300433
#	Creating user name:	WinNT
#	Creation time:	15. 06. 2019 21:09

#	Modifying user name:	WinNT
#	Modification time:	15. 06. 2019 21:09

#	Program:	/corina/corina34_cracker 3.40 0067  02.08.2006

@<TRIPOS>MOLECULE
ASD07300433
  35   36    0    0    0
SMALL
NO_CHARGES


@<TRIPOS>ATOM
   1 C1             0.1741     1.0561     0.0523 C.2     
   2 N2             0.2240    -0.2407     0.1650 N.2     
   3 C3             1.5140    -0.6359     0.3220 C.ar    
   4 C4             2.3042     0.5257     0.3013 C.ar    
   5 N5             1.4279     1.5802     0.1292 N.pl3   
   6 C6             2.1261    -1.8811     0.4846 C.ar    
   7 C7             3.4935    -1.9578     0.6224 C.ar    
   8 C8             4.2693    -0.8078     0.6018 C.ar    
   9 C9             3.6812     0.4291     0.4411 C.ar    
  10 C10            1.7827     2.9991     0.0448 C.3     
  11 C11            1.7689     3.6125     1.4464 C.3     
  12 O12            2.7956     3.0127     2.2389 O.3     
  13 C13            2.7891     3.4248     3.6072 C.3     
  14 C14            3.8139     2.6035     4.3921 C.3     
  15 O15            2.0002     5.0196     1.3528 O.3     
  16 C16            1.4294     5.7749     2.4232 C.3     
  17 C17            1.6264     7.2683     2.1553 C.3     
  18 Cl18          -1.2785     1.9801    -0.1710 Cl      
  19 H19            1.5285    -2.7805     0.5023 H       
  20 H20            3.9662    -2.9207     0.7481 H       
  21 H21            5.3411    -0.8818     0.7117 H       
  22 H22            4.2909     1.3204     0.4252 H       
  23 H23            2.7788     3.0996    -0.3860 H       
  24 H24            1.0602     3.5173    -0.5857 H       
  25 H25            0.7996     3.4338     1.9117 H       
  26 H26            3.0464     4.4822     3.6694 H       
  27 H27            1.7967     3.2670     4.0295 H       
  28 H28            3.5566     1.5461     4.3299 H       
  29 H29            4.8063     2.7614     3.9698 H       
  30 H30            3.8089     2.9178     5.4358 H       
  31 H31            0.3640     5.5560     2.4946 H       
  32 H32            1.9191     5.5060     3.3591 H       
  33 H33            2.6918     7.4872     2.0839 H       
  34 H34            1.1367     7.5373     1.2193 H       
  35 H35            1.1910     7.8444     2.9718 H       
@<TRIPOS>BOND
   1    1    2 2
   2    1    5 1
   3    1   18 1
   4    2    3 1
   5    3    4 ar
   6    3    6 ar
   7    4    5 1
   8    4    9 ar
   9    5   10 1
  10    6    7 ar
  11    6   19 1
  12    7    8 ar
  13    7   20 1
  14    8    9 ar
  15    8   21 1
  16    9   22 1
  17   10   11 1
  18   10   23 1
  19   10   24 1
  20   11   12 1
  21   11   15 1
  22   11   25 1
  23   12   13 1
  24   13   14 1
  25   13   26 1
  26   13   27 1
  27   14   28 1
  28   14   29 1
  29   14   30 1
  30   15   16 1
  31   16   17 1
  32   16   31 1
  33   16   32 1
  34   17   33 1
  35   17   34 1
  36   17   35 1

#	End of record

