#	Name: ASD01885315
#	Creating user name:	WinNT
#	Creation time:	15. 06. 2019 19:49

#	Modifying user name:	WinNT
#	Modification time:	15. 06. 2019 19:49

#	Program:	/corina/corina34_cracker 3.40 0067  02.08.2006

@<TRIPOS>MOLECULE
ASD01885315
  51   54    0    0    0
SMALL
NO_CHARGES


@<TRIPOS>ATOM
   1 C1            -0.0164     1.3564     0.0095 C.ar    
   2 C2             0.0021    -0.0041     0.0020 C.ar    
   3 C3             1.2053    -0.7064    -0.0128 C.ar    
   4 C4             2.3988    -0.0484    -0.0201 C.ar    
   5 C5             2.4185     1.3521    -0.0133 C.ar    
   6 C6             1.1965     2.0715     0.0018 C.ar    
   7 C7             3.6407     2.0709    -0.0210 C.ar    
   8 C8             3.5788     3.4577    -0.0140 C.ar    
   9 C9             2.3314     4.0920     0.0004 C.ar    
  10 N10            1.2050     3.4047     0.0084 N.ar    
  11 C11            4.9419     1.3646    -0.0357 C.ar    
  12 C12            2.2741     5.5737     0.0083 C.2     
  13 O13            3.3020     6.2215     0.0024 O.2     
  14 N14            1.0818     6.2019     0.0222 N.am    
  15 C15           -1.2997    -0.7633     0.0104 C.3     
  16 C16            5.9189     1.7166    -0.9675 C.ar    
  17 C17            7.1293     1.0557    -0.9771 C.ar    
  18 C18            7.3760     0.0433    -0.0632 C.ar    
  19 C19            6.4087    -0.3101     0.8644 C.ar    
  20 C20            5.1973     0.3487     0.8859 C.ar    
  21 F21            8.5631    -0.6015    -0.0769 F       
  22 N22           -1.7358    -1.0026    -1.3718 N.3     
  23 C23           -2.8674    -1.9377    -1.4122 C.3     
  24 C24           -3.1999    -2.2756    -2.8673 C.3     
  25 C25           -3.5508    -0.9880    -3.6178 C.3     
  26 C26           -2.3746    -0.0126    -3.5195 C.3     
  27 C27           -2.0659     0.2598    -2.0455 C.3     
  28 N28           -3.8141    -1.2987    -5.0292 N.3     
  29 H29           -0.9577     1.8858     0.0168 H       
  30 H30            1.1920    -1.7863    -0.0181 H       
  31 H31            3.3248    -0.6041    -0.0309 H       
  32 H32            4.4866     4.0427    -0.0191 H       
  33 H33            0.2612     5.6848     0.0269 H       
  34 H34            1.0443     7.1712     0.0274 H       
  35 H35           -1.1602    -1.7179     0.5178 H       
  36 H36           -2.0569    -0.1804     0.5346 H       
  37 H37            5.7274     2.5050    -1.6802 H       
  38 H38            7.8860     1.3272    -1.6983 H       
  39 H39            6.6057    -1.0996     1.5745 H       
  40 H40            4.4459     0.0757     1.6120 H       
  41 H41           -2.6032    -2.8507    -0.8785 H       
  42 H42           -3.7351    -1.4785    -0.9386 H       
  43 H43           -2.3372    -2.7475    -3.3376 H       
  44 H44           -4.0498    -2.9575    -2.8974 H       
  45 H45           -4.4368    -0.5363    -3.1719 H       
  46 H46           -1.4989    -0.4488    -4.0001 H       
  47 H47           -2.6347     0.9224    -4.0156 H       
  48 H48           -2.9374     0.7087    -1.5689 H       
  49 H49           -1.2197     0.9428    -1.9718 H       
  50 H50           -4.0481    -0.4640    -5.5457 H       
  51 H51           -3.0287    -1.7744    -5.4474 H       
@<TRIPOS>BOND
   1    1    2 ar
   2    1    6 ar
   3    1   29 1
   4    2    3 ar
   5    2   15 1
   6    3    4 ar
   7    3   30 1
   8    4    5 ar
   9    4   31 1
  10    5    7 ar
  11    5    6 ar
  12    6   10 ar
  13    7    8 ar
  14    7   11 1
  15    8    9 ar
  16    8   32 1
  17    9   10 ar
  18    9   12 1
  19   11   16 ar
  20   11   20 ar
  21   12   13 2
  22   12   14 am
  23   14   33 1
  24   14   34 1
  25   15   22 1
  26   15   35 1
  27   15   36 1
  28   16   17 ar
  29   16   37 1
  30   17   18 ar
  31   17   38 1
  32   18   19 ar
  33   18   21 1
  34   19   20 ar
  35   19   39 1
  36   20   40 1
  37   22   23 1
  38   22   27 1
  39   23   24 1
  40   23   41 1
  41   23   42 1
  42   24   25 1
  43   24   43 1
  44   24   44 1
  45   25   26 1
  46   25   28 1
  47   25   45 1
  48   26   27 1
  49   26   46 1
  50   26   47 1
  51   27   48 1
  52   27   49 1
  53   28   50 1
  54   28   51 1

#	End of record

