#	Name: ASD01811470
#	Creating user name:	WinNT
#	Creation time:	15. 06. 2019 19:26

#	Modifying user name:	WinNT
#	Modification time:	15. 06. 2019 19:26

#	Program:	/corina/corina34_cracker 3.40 0067  02.08.2006

@<TRIPOS>MOLECULE
ASD01811470
  69   74    0    0    0
SMALL
NO_CHARGES


@<TRIPOS>ATOM
   1 C1            -7.3353     2.1279    -3.9005 C.1     
   2 C2            -6.3579     2.9265    -3.2240 C.ar    
   3 C3            -5.1968     2.3365    -2.7205 C.ar    
   4 C4            -4.2594     3.1117    -2.0698 C.ar    
   5 C5            -4.4679     4.4708    -1.9152 C.ar    
   6 C6            -5.6164     5.0618    -2.4113 C.ar    
   7 C7            -6.5589     4.2997    -3.0700 C.ar    
   8 N8            -8.1106     1.4944    -4.4372 N.1     
   9 N9            -2.4141     7.7408    -0.1804 N.am    
  10 C10           -1.8505     7.2243    -1.4351 C.3     
  11 C11           -2.9203     6.3941    -2.1513 C.3     
  12 C12           -3.4396     5.3111    -1.2028 C.3     
  13 C13           -4.0784     5.9678     0.0231 C.3     
  14 C14           -3.0217     6.7932     0.7640 C.3     
  15 C15           -2.3697     9.0580     0.1015 C.2     
  16 C16           -3.0173     9.5741     1.3265 C.ar    
  17 C17           -3.9728    10.5892     1.2387 C.ar    
  18 C18           -4.5782    11.0720     2.3815 C.ar    
  19 C19           -4.2440    10.5558     3.6182 C.ar    
  20 C20           -3.2906     9.5411     3.7201 C.ar    
  21 C21           -2.6799     9.0452     2.5704 C.ar    
  22 O22           -1.7973     9.8216    -0.6513 O.2     
  23 C23           -1.0712     6.9252     7.4384 C.3     
  24 C24           -1.9527     7.8428     6.6316 C.2     
  25 C25           -2.9317     8.6097     7.1692 C.2     
  26 C26           -3.2481     8.6220     8.6455 C.3     
  27 C27           -2.5916     7.3873     9.2781 C.3     
  28 N28           -1.1862     7.3039     8.8574 N.3     
  29 C29           -2.9336     8.9898     5.0457 C.2     
  30 N30           -1.9481     8.0748     5.2921 N.pl3   
  31 N31           -3.5114     9.2974     6.1891 N.2     
  32 C32           -4.3433    11.1587    -0.1064 C.3     
  33 C33           -4.9098    11.0894     4.8604 C.3     
  34 C34           -4.7693    12.6115     5.0292 C.3     
  35 C35           -6.2279    12.6130     5.5162 C.3     
  36 C36           -6.4204    11.3261     4.6965 C.3     
  37 H37           -5.0332     1.2757    -2.8398 H       
  38 H38           -3.3610     2.6567    -1.6799 H       
  39 H39           -5.7730     6.1232    -2.2869 H       
  40 H40           -7.4526     4.7631    -3.4610 H       
  41 H41           -1.5485     8.0572    -2.0701 H       
  42 H42           -0.9865     6.5967    -1.2165 H       
  43 H43           -3.7444     7.0421    -2.4497 H       
  44 H44           -2.4865     5.9262    -3.0350 H       
  45 H45           -2.6107     4.6786    -0.8852 H       
  46 H46           -4.8916     6.6198    -0.2957 H       
  47 H47           -4.4688     5.1965     0.6870 H       
  48 H48           -2.2532     6.1304     1.1619 H       
  49 H49           -3.4924     7.3416     1.5799 H       
  50 H50           -5.3162    11.8571     2.3083 H       
  51 H51           -1.9450     8.2572     2.6435 H       
  52 H52           -1.3961     5.8932     7.3059 H       
  53 H53           -0.0362     7.0299     7.1128 H       
  54 H54           -2.8470     9.5273     9.1012 H       
  55 H55           -4.3275     8.5817     8.7918 H       
  56 H56           -2.6410     7.4665    10.3641 H       
  57 H57           -3.1204     6.4902     8.9561 H       
  58 H58           -0.6701     6.6661     9.4448 H       
  59 H59           -1.3586     7.6693     4.6371 H       
  60 H60           -5.1104    10.5355    -0.5661 H       
  61 H61           -4.7260    12.1714     0.0207 H       
  62 H62           -3.4616    11.1812    -0.7469 H       
  63 H63           -4.6495    10.5250     5.7558 H       
  64 H64           -4.0522    12.9013     5.7973 H       
  65 H65           -4.6222    13.1433     4.0891 H       
  66 H66           -6.3295    12.4651     6.5913 H       
  67 H67           -6.8106    13.4570     5.1471 H       
  68 H68           -6.7247    11.5065     3.6655 H       
  69 H69           -7.0362    10.5783     5.1960 H       
@<TRIPOS>BOND
   1    1    2 1
   2    1    8 3
   3    2    3 ar
   4    2    7 ar
   5    3    4 ar
   6    3   37 1
   7    4    5 ar
   8    4   38 1
   9    5    6 ar
  10    5   12 1
  11    6    7 ar
  12    6   39 1
  13    7   40 1
  14    9   10 1
  15    9   14 1
  16    9   15 am
  17   10   11 1
  18   10   41 1
  19   10   42 1
  20   11   12 1
  21   11   43 1
  22   11   44 1
  23   12   13 1
  24   12   45 1
  25   13   14 1
  26   13   46 1
  27   13   47 1
  28   14   48 1
  29   14   49 1
  30   15   16 1
  31   15   22 2
  32   16   17 ar
  33   16   21 ar
  34   17   18 ar
  35   17   32 1
  36   18   19 ar
  37   18   50 1
  38   19   20 ar
  39   19   33 1
  40   20   21 ar
  41   20   29 1
  42   21   51 1
  43   23   24 1
  44   23   28 1
  45   23   52 1
  46   23   53 1
  47   24   25 2
  48   24   30 1
  49   25   26 1
  50   25   31 1
  51   26   27 1
  52   26   54 1
  53   26   55 1
  54   27   28 1
  55   27   56 1
  56   27   57 1
  57   28   58 1
  58   29   30 1
  59   29   31 2
  60   30   59 1
  61   32   60 1
  62   32   61 1
  63   32   62 1
  64   33   34 1
  65   33   36 1
  66   33   63 1
  67   34   35 1
  68   34   64 1
  69   34   65 1
  70   35   36 1
  71   35   66 1
  72   35   67 1
  73   36   68 1
  74   36   69 1

#	End of record

