#	Name: ASD02198567
#	Creating user name:	WinNT
#	Creation time:	15. 06. 2019 20:19

#	Modifying user name:	WinNT
#	Modification time:	15. 06. 2019 20:19

#	Program:	/corina/corina34_cracker 3.40 0067  02.08.2006

@<TRIPOS>MOLECULE
ASD02198567
  54   58    0    0    0
SMALL
NO_CHARGES


@<TRIPOS>ATOM
   1 C1            -0.0836     1.4975     0.0637 C.2     
   2 C2            -0.0454     0.1685    -0.2271 C.2     
   3 N3            -1.1880    -0.5329    -0.4091 N.pl3   
   4 N4            -2.3554    -0.0110    -0.3233 N.2     
   5 C5            -2.5352     1.2644    -0.0478 C.2     
   6 C6            -1.3572     2.1139     0.1738 C.2     
   7 C7            -1.0902    -1.8966    -0.7065 C.ar    
   8 C8            -1.6099    -3.7541    -2.1373 C.ar    
   9 C9            -0.8962    -4.5974    -1.2952 C.ar    
  10 C10           -0.2846    -4.0876    -0.1558 C.ar    
  11 C11           -0.3817    -2.7429     0.1375 C.ar    
  12 C12           -3.8971     1.8293     0.0426 C.2     
  13 N13           -4.4273     2.5039     1.1062 N.pl3   
  14 N14           -5.7393     2.8627     0.7728 N.2     
  15 C15           -6.0002     2.4296    -0.4349 C.2     
  16 C16           -4.8698     1.7804    -0.9316 C.2     
  17 C17           -3.7756     2.7856     2.3136 C.ar    
  18 C18           -2.9897     1.8162     2.9227 C.ar    
  19 O19           -1.4691     3.3036     0.4328 O.2     
  20 C20           -3.9094     4.0367     2.9012 C.ar    
  21 C21           -3.2656     4.3113     4.0918 C.ar    
  22 C22           -2.4882     3.3419     4.6987 C.ar    
  23 C23           -2.3484     2.0970     4.1132 C.ar    
  24 C24           -1.7073    -2.4069    -1.8447 C.ar    
  25 F25           -2.4016    -1.5860    -2.6628 F       
  26 O26            1.0602     2.2098     0.2481 O.3     
  27 C27            2.2940     1.4997     0.1225 C.3     
  28 N28           -0.7976    -5.9590    -1.5906 N.3     
  29 C29           -0.9496    -6.1998    -3.0487 C.3     
  30 C30           -0.3011    -7.5808    -3.2846 C.3     
  31 C31            0.6915    -7.7620    -2.1178 C.3     
  32 C32            0.5592    -6.4754    -1.2750 C.3     
  33 F33           -1.2738    -8.5858    -3.2557 F       
  34 F34            0.3784    -7.5959    -4.5074 F       
  35 F35            0.3441    -8.8813    -1.3537 F       
  36 F36            1.9964    -7.8914    -2.6055 F       
  37 H37            0.9078    -0.3319    -0.3138 H       
  38 H38           -2.0847    -4.1503    -3.0227 H       
  39 H39            0.2700    -4.7439     0.4984 H       
  40 H40            0.0936    -2.3479     1.0232 H       
  41 H41           -6.9347     2.5573    -0.9610 H       
  42 H42           -4.7764     1.3169    -1.9026 H       
  43 H43           -2.8803     0.8436     2.4661 H       
  44 H44           -4.5161     4.7943     2.4274 H       
  45 H45           -3.3690     5.2842     4.5490 H       
  46 H46           -1.9857     3.5591     5.6297 H       
  47 H47           -1.7406     1.3420     4.5897 H       
  48 H48            2.3701     1.0778    -0.8796 H       
  49 H49            3.1256     2.1834     0.2930 H       
  50 H50            2.3274     0.6964     0.8585 H       
  51 H51           -2.0045    -6.2236    -3.3221 H       
  52 H52           -0.4258    -5.4316    -3.6175 H       
  53 H53            1.3191    -5.7503    -1.5662 H       
  54 H54            0.6403    -6.7066    -0.2129 H       
@<TRIPOS>BOND
   1    1    2 2
   2    1   26 1
   3    1    6 1
   4    2    3 1
   5    2   37 1
   6    3    4 1
   7    3    7 1
   8    4    5 2
   9    5    6 1
  10    5   12 1
  11    6   19 2
  12    7   24 ar
  13    7   11 ar
  14    8    9 ar
  15    8   24 ar
  16    8   38 1
  17    9   10 ar
  18    9   28 1
  19   10   11 ar
  20   10   39 1
  21   11   40 1
  22   12   13 1
  23   12   16 2
  24   13   14 1
  25   13   17 1
  26   14   15 2
  27   15   16 1
  28   15   41 1
  29   16   42 1
  30   17   20 ar
  31   17   18 ar
  32   18   23 ar
  33   18   43 1
  34   20   21 ar
  35   20   44 1
  36   21   22 ar
  37   21   45 1
  38   22   23 ar
  39   22   46 1
  40   23   47 1
  41   24   25 1
  42   26   27 1
  43   27   48 1
  44   27   49 1
  45   27   50 1
  46   28   29 1
  47   28   32 1
  48   29   30 1
  49   29   51 1
  50   29   52 1
  51   30   31 1
  52   30   33 1
  53   30   34 1
  54   31   32 1
  55   31   35 1
  56   31   36 1
  57   32   53 1
  58   32   54 1

#	End of record

