#	Name: ASD01230274
#	Creating user name:	WinNT
#	Creation time:	15. 06. 2019 19:12

#	Modifying user name:	WinNT
#	Modification time:	15. 06. 2019 19:12

#	Program:	/corina/corina34_cracker 3.40 0067  02.08.2006

@<TRIPOS>MOLECULE
ASD01230274
  33   35    0    0    0
SMALL
NO_CHARGES


@<TRIPOS>ATOM
   1 C1            -0.0169     1.3984     0.0097 C.ar    
   2 C2             0.0021    -0.0041     0.0020 C.ar    
   3 C3             1.2330    -0.6605    -0.0132 C.ar    
   4 C4             2.3883     0.1054    -0.0201 C.ar    
   5 C5             2.2901     1.4833    -0.0118 C.ar    
   6 N6             1.1147     2.0836     0.0026 N.ar    
   7 N7            -1.2305     2.0715     0.0191 N.pl3   
   8 C8            -3.6304    -2.2183     0.0267 C.ar    
   9 C9            -2.6404    -2.5132    -0.9102 C.ar    
  10 C10           -1.4644    -1.7964    -0.9185 C.ar    
  11 C11           -1.2635    -0.7752     0.0104 C.ar    
  12 C12           -2.2539    -0.4804     0.9476 C.ar    
  13 C13           -3.4298    -1.1975     0.9555 C.ar    
  14 C14           -4.8991    -2.9863     0.0316 C.ar    
  15 C15           -5.8904    -2.6937     0.9668 C.ar    
  16 C16           -7.0689    -3.4117     0.9666 C.ar    
  17 C17           -7.2674    -4.4203     0.0409 C.ar    
  18 C18           -6.2871    -4.7150    -0.8896 C.ar    
  19 C19           -5.1071    -3.9995    -0.9028 C.ar    
  20 H20            1.2845    -1.7393    -0.0192 H       
  21 H21            3.3574    -0.3712    -0.0316 H       
  22 H22            3.1905     2.0796    -0.0168 H       
  23 H23           -2.0621     1.5722     0.0203 H       
  24 H24           -1.2471     3.0414     0.0245 H       
  25 H25           -2.7958    -3.3041    -1.6292 H       
  26 H26           -0.6976    -2.0250    -1.6439 H       
  27 H27           -2.0984     0.3099     1.6671 H       
  28 H28           -4.1965    -0.9693     1.6810 H       
  29 H29           -5.7362    -1.9070     1.6904 H       
  30 H30           -7.8377    -3.1859     1.6908 H       
  31 H31           -8.1910    -4.9801     0.0449 H       
  32 H32           -6.4474    -5.5035    -1.6100 H       
  33 H33           -4.3444    -4.2272    -1.6327 H       
@<TRIPOS>BOND
   1    1    2 ar
   2    1    6 ar
   3    1    7 1
   4    2    3 ar
   5    2   11 1
   6    3    4 ar
   7    3   20 1
   8    4    5 ar
   9    4   21 1
  10    5    6 ar
  11    5   22 1
  12    7   23 1
  13    7   24 1
  14    8    9 ar
  15    8   13 ar
  16    8   14 1
  17    9   10 ar
  18    9   25 1
  19   10   11 ar
  20   10   26 1
  21   11   12 ar
  22   12   13 ar
  23   12   27 1
  24   13   28 1
  25   14   15 ar
  26   14   19 ar
  27   15   16 ar
  28   15   29 1
  29   16   17 ar
  30   16   30 1
  31   17   18 ar
  32   17   31 1
  33   18   19 ar
  34   18   32 1
  35   19   33 1

#	End of record

