#	Name: ASD02610046
#	Creating user name:	WinNT
#	Creation time:	15. 06. 2019 20:25

#	Modifying user name:	WinNT
#	Modification time:	15. 06. 2019 20:25

#	Program:	/corina/corina34_cracker 3.40 0067  02.08.2006

@<TRIPOS>MOLECULE
ASD02610046
  45   48    0    0    0
SMALL
NO_CHARGES


@<TRIPOS>ATOM
   1 O1            -0.0173     1.4248     0.0099 O.3     
   2 C2             0.0021    -0.0041     0.0020 C.3     
   3 C3            -1.4339    -0.5630     0.0127 C.3     
   4 C4             0.6043    -0.5305    -1.3234 C.3     
   5 O5             0.5220     0.4602    -2.3499 O.3     
   6 C6            -0.3169    -1.7355    -1.6426 C.3     
   7 O7            -1.6206    -1.2850    -1.2161 O.3     
   8 N8            -0.3141    -2.0206    -3.0796 N.pl3   
   9 C9            -1.6161    -1.5065     1.2033 C.3     
  10 C10            0.5997    -2.7926    -3.7525 C.2     
  11 C11            0.2019    -2.7788    -5.0921 C.2     
  12 N12           -0.9099    -2.0178    -5.1762 N.2     
  13 C13           -1.2206    -1.5732    -3.9909 C.2     
  14 N14            1.6888    -3.4831    -3.3893 N.2     
  15 C15            2.4061    -4.1536    -4.2420 C.2     
  16 N16            2.1069    -4.2066    -5.5699 N.pl3   
  17 C17            1.0087    -3.5330    -6.0511 C.2     
  18 O18           -2.9797    -1.9283     1.2726 O.3     
  19 P19           -3.5314    -2.9293     2.4064 P.3     
  20 O20           -2.6904    -4.2254     2.4026 O.co2   
  21 O21           -3.4241    -2.2499     3.7899 O.co2   
  22 O22           -5.0713    -3.2879     2.1026 O.3     
  23 P23           -6.0821    -4.4214     2.6370 P.3     
  24 O24           -7.3015    -4.5857     1.5987 O.3     
  25 O25           -5.3292    -5.7645     2.7639 O.co2   
  26 O26           -6.6348    -4.0083     4.0194 O.co2   
  27 P27           -8.4389    -5.7035     1.3772 P.3     
  28 O28           -9.3052    -5.8316     2.6762 O.co2   
  29 O29           -9.3554    -5.2853     0.1774 O.co2   
  30 O30           -7.7628    -7.0813     1.0624 O.co2   
  31 C31            2.6904    -4.8267    -6.6430 C.2     
  32 C32            1.9504    -4.5231    -7.7296 C.2     
  33 N33            0.9353    -3.7378    -7.3496 N.2     
  34 H34            0.8606     1.8301     0.0037 H       
  35 H35            0.5649    -0.3818     0.8557 H       
  36 H36           -2.1502     0.2564     0.0736 H       
  37 H37            1.6349    -0.8552    -1.1805 H       
  38 H38            1.0103     1.2715    -2.1536 H       
  39 H39           -0.0081    -2.6149    -1.0774 H       
  40 H40           -0.9724    -2.3773     1.0786 H       
  41 H41           -1.3494    -0.9863     2.1233 H       
  42 H42           -2.0658    -0.9394    -3.7669 H       
  43 H43            3.2728    -4.6890    -3.8835 H       
  44 H44            3.5770    -5.4432    -6.6231 H       
  45 H45            2.1448    -4.8578    -8.7379 H       
@<TRIPOS>BOND
   1    1    2 1
   2    1   34 1
   3    2    3 1
   4    2    4 1
   5    2   35 1
   6    3    7 1
   7    3    9 1
   8    3   36 1
   9    4    5 1
  10    4    6 1
  11    4   37 1
  12    5   38 1
  13    6    8 1
  14    6    7 1
  15    6   39 1
  16    8   10 1
  17    8   13 1
  18    9   18 1
  19    9   40 1
  20    9   41 1
  21   10   11 2
  22   10   14 1
  23   11   12 1
  24   11   17 1
  25   12   13 2
  26   13   42 1
  27   14   15 2
  28   15   16 1
  29   15   43 1
  30   16   17 1
  31   16   31 1
  32   17   33 2
  33   18   19 1
  34   19   20 ar
  35   19   21 ar
  36   19   22 1
  37   22   23 1
  38   23   24 1
  39   23   25 ar
  40   23   26 ar
  41   24   27 1
  42   27   28 ar
  43   27   29 ar
  44   27   30 ar
  45   31   32 2
  46   31   44 1
  47   32   33 1
  48   32   45 1

#	End of record

