#	Name: ASD02198178
#	Creating user name:	WinNT
#	Creation time:	15. 06. 2019 20:18

#	Modifying user name:	WinNT
#	Modification time:	15. 06. 2019 20:18

#	Program:	/corina/corina34_cracker 3.40 0067  02.08.2006

@<TRIPOS>MOLECULE
ASD02198178
  51   54    0    0    0
SMALL
NO_CHARGES


@<TRIPOS>ATOM
   1 C1            -0.1558     1.5374    -0.5462 C.2     
   2 C2             0.0010     0.1808    -0.3548 C.2     
   3 C3            -1.0579    -0.7629    -0.5523 C.1     
   4 S4             1.2979     2.3686    -0.2254 S.3     
   5 C5             2.1384     0.8790     0.1738 C.2     
   6 C6             1.2826    -0.1889     0.0477 C.2     
   7 C7             3.4888     0.7919     0.5651 C.2     
   8 C8             4.2667     2.0237     0.8153 C.ar    
   9 O9             4.0161    -0.2998     0.6974 O.2     
  10 N10            1.6566    -1.5007     0.2957 N.pl3   
  11 N11           -1.3261     2.1387    -0.9478 N.pl3   
  12 N12           -1.8978    -1.5115    -0.7089 N.1     
  13 C13            3.6277     3.1707     1.2915 C.ar    
  14 C14           -1.3449     3.5067    -1.2418 C.ar    
  15 C15           -0.2837     4.0849    -1.9265 C.ar    
  16 C16           -0.3029     5.4348    -2.2162 C.ar    
  17 C17           -1.3817     6.2137    -1.8230 C.ar    
  18 C18           -2.4421     5.6369    -1.1389 C.ar    
  19 C19           -2.4272     4.2860    -0.8540 C.ar    
  20 O20           -1.3995     7.5430    -2.1077 O.3     
  21 C21           -1.7359     7.9208    -3.3689 C.ar    
  22 C22           -1.9806     6.9605    -4.3401 C.ar    
  23 C23           -2.3224     7.3472    -5.6214 C.ar    
  24 C24           -2.4207     8.6900    -5.9366 C.ar    
  25 C25           -2.1769     9.6490    -4.9707 C.ar    
  26 C26           -1.8408     9.2676    -3.6863 C.ar    
  27 C27            4.3560     4.3167     1.5234 C.ar    
  28 C28            5.7248     4.3325     1.2842 C.ar    
  29 C29            6.3642     3.1932     0.8104 C.ar    
  30 C30            5.6436     2.0418     0.5815 C.ar    
  31 O31            6.4392     5.4638     1.5135 O.3     
  32 C32            7.8420     5.4106     1.2464 C.3     
  33 H33            2.5637    -1.7021     0.5740 H       
  34 H34            1.0111    -2.2172     0.1909 H       
  35 H35           -2.1383     1.6144    -1.0272 H       
  36 H36            2.5639     3.1593     1.4773 H       
  37 H37            0.5564     3.4788    -2.2320 H       
  38 H38            0.5221     5.8845    -2.7486 H       
  39 H39           -3.2813     6.2440    -0.8329 H       
  40 H40           -3.2527     3.8372    -0.3215 H       
  41 H41           -1.9036     5.9116    -4.0946 H       
  42 H42           -2.5126     6.6002    -6.3778 H       
  43 H43           -2.6881     8.9902    -6.9389 H       
  44 H44           -2.2537    10.6971    -5.2197 H       
  45 H45           -1.6509    10.0170    -2.9322 H       
  46 H46            3.8625     5.2041     1.8913 H       
  47 H47            7.4281     3.2094     0.6253 H       
  48 H48            6.1412     1.1567     0.2133 H       
  49 H49            8.3015     4.6429     1.8690 H       
  50 H50            8.0030     5.1706     0.1955 H       
  51 H51            8.2916     6.3778     1.4712 H       
@<TRIPOS>BOND
   1    1    2 2
   2    1    4 1
   3    1   11 1
   4    2    3 1
   5    2    6 1
   6    3   12 3
   7    4    5 1
   8    5    6 2
   9    5    7 1
  10    6   10 1
  11    7    8 1
  12    7    9 2
  13    8   13 ar
  14    8   30 ar
  15   10   33 1
  16   10   34 1
  17   11   14 1
  18   11   35 1
  19   13   27 ar
  20   13   36 1
  21   14   15 ar
  22   14   19 ar
  23   15   16 ar
  24   15   37 1
  25   16   17 ar
  26   16   38 1
  27   17   18 ar
  28   17   20 1
  29   18   19 ar
  30   18   39 1
  31   19   40 1
  32   20   21 1
  33   21   22 ar
  34   21   26 ar
  35   22   23 ar
  36   22   41 1
  37   23   24 ar
  38   23   42 1
  39   24   25 ar
  40   24   43 1
  41   25   26 ar
  42   25   44 1
  43   26   45 1
  44   27   28 ar
  45   27   46 1
  46   28   29 ar
  47   28   31 1
  48   29   30 ar
  49   29   47 1
  50   30   48 1
  51   31   32 1
  52   32   49 1
  53   32   50 1
  54   32   51 1

#	End of record

