#	Name: ASD01310031
#	Creating user name:	WinNT
#	Creation time:	15. 06. 2019 19:15

#	Modifying user name:	WinNT
#	Modification time:	15. 06. 2019 19:15

#	Program:	/corina/corina34_cracker 3.40 0067  02.08.2006

@<TRIPOS>MOLECULE
ASD01310031
  49   50    0    0    0
SMALL
NO_CHARGES


@<TRIPOS>ATOM
   1 C1            -0.0168     1.3866     0.0097 C.ar    
   2 C2             0.0021    -0.0041     0.0020 C.ar    
   3 C3             1.1973    -0.6758    -0.0130 C.ar    
   4 C4             2.4004     0.0408    -0.0206 C.ar    
   5 C5             2.3758     1.4410    -0.0128 C.ar    
   6 C6             1.1752     2.1031     0.0021 C.ar    
   7 O7            -1.2021     2.0465     0.0188 O.3     
   8 C8            -1.2934    -0.7739     0.0107 C.3     
   9 C9            -1.3758    -1.6478    -1.2425 C.3     
  10 C10           -1.3510    -1.6612     1.2559 C.3     
  11 C11            1.1472     3.6098     0.0105 C.3     
  12 C12            1.8707     4.1265     1.2556 C.3     
  13 C13            1.8469     4.1398    -1.2427 C.3     
  14 C14            3.6835    -0.6735    -0.0362 C.2     
  15 O15            3.7024    -1.8863    -0.0425 O.2     
  16 C16            4.9766     0.1003    -0.0443 C.3     
  17 C17            5.4277     0.3549     1.3953 C.3     
  18 C18            6.0489    -0.7062    -0.7797 C.3     
  19 C19            7.3618     0.0794    -0.7880 C.3     
  20 C20            7.8129     0.3340     0.6517 C.3     
  21 C21            6.7406     1.1405     1.3870 C.3     
  22 H22            1.2109    -1.7557    -0.0186 H       
  23 H23            3.3009     1.9983    -0.0183 H       
  24 H24           -1.5415     2.2330     0.9049 H       
  25 H25           -2.1307    -0.0761     0.0228 H       
  26 H26           -0.5385    -2.3456    -1.2545 H       
  27 H27           -2.3128    -2.2046    -1.2362 H       
  28 H28           -1.3347    -1.0157    -2.1295 H       
  29 H29           -1.2923    -1.0387     2.1487 H       
  30 H30           -2.2880    -2.2181     1.2622 H       
  31 H31           -0.5137    -2.3590     1.2438 H       
  32 H32            0.1130     3.9539     0.0222 H       
  33 H33            2.9049     3.7823     1.2439 H       
  34 H34            1.8505     5.2163     1.2617 H       
  35 H35            1.3723     3.7489     2.1484 H       
  36 H36            1.3314     3.7718    -2.1298 H       
  37 H37            1.8266     5.2296    -1.2367 H       
  38 H38            2.8811     3.7957    -1.2544 H       
  39 H39            4.8267     1.0531    -0.5520 H       
  40 H40            4.6638     0.9294     1.9192 H       
  41 H41            5.5777    -0.5980     1.9030 H       
  42 H42            6.1988    -1.6590    -0.2721 H       
  43 H43            5.7275    -0.8876    -1.8053 H       
  44 H44            8.1257    -0.4952    -1.3119 H       
  45 H45            7.2118     1.0322    -1.2957 H       
  46 H46            7.9628    -0.6189     1.1593 H       
  47 H47            8.7482     0.8937     0.6457 H       
  48 H48            6.5907     2.0933     0.8794 H       
  49 H49            7.0620     1.3218     2.4126 H       
@<TRIPOS>BOND
   1    1    2 ar
   2    1    6 ar
   3    1    7 1
   4    2    3 ar
   5    2    8 1
   6    3    4 ar
   7    3   22 1
   8    4    5 ar
   9    4   14 1
  10    5    6 ar
  11    5   23 1
  12    6   11 1
  13    7   24 1
  14    8    9 1
  15    8   10 1
  16    8   25 1
  17    9   26 1
  18    9   27 1
  19    9   28 1
  20   10   29 1
  21   10   30 1
  22   10   31 1
  23   11   12 1
  24   11   13 1
  25   11   32 1
  26   12   33 1
  27   12   34 1
  28   12   35 1
  29   13   36 1
  30   13   37 1
  31   13   38 1
  32   14   15 2
  33   14   16 1
  34   16   18 1
  35   16   17 1
  36   16   39 1
  37   17   21 1
  38   17   40 1
  39   17   41 1
  40   18   19 1
  41   18   42 1
  42   18   43 1
  43   19   20 1
  44   19   44 1
  45   19   45 1
  46   20   21 1
  47   20   46 1
  48   20   47 1
  49   21   48 1
  50   21   49 1

#	End of record

