#	Name: ASD01230251
#	Creating user name:	WinNT
#	Creation time:	15. 06. 2019 19:12

#	Modifying user name:	WinNT
#	Modification time:	15. 06. 2019 19:12

#	Program:	/corina/corina34_cracker 3.40 0067  02.08.2006

@<TRIPOS>MOLECULE
ASD01230251
  62   66    0    0    0
SMALL
NO_CHARGES


@<TRIPOS>ATOM
   1 C1            -0.0184     1.5028     0.0103 C.3     
   2 C2             0.0021    -0.0041     0.0020 C.2     
   3 N3             1.0701    -0.7598     0.0807 N.2     
   4 N4             0.6632    -2.1018     0.0400 N.pl3   
   5 C5            -0.6759    -2.1224    -0.0638 C.2     
   6 C6            -1.1112    -0.8368    -0.0845 C.2     
   7 C7            -2.5617    -0.4364    -0.1908 C.3     
   8 C8            -3.3642    -1.6508    -0.6738 C.3     
   9 C9            -3.0146    -2.8691     0.1851 C.3     
  10 C10           -1.5838    -3.3244    -0.1387 C.3     
  11 C11            1.5422    -3.2723     0.0997 C.3     
  12 C12            1.7339    -3.6838     1.5367 C.2     
  13 O13            1.1899    -3.0607     2.4237 O.2     
  14 N14            2.5100    -4.7442     1.8362 N.am    
  15 C15            2.6864    -5.1229     3.1584 C.2     
  16 S16            1.9806    -4.3357     4.4929 S.3     
  17 C17            2.7198    -5.4393     5.6415 C.2     
  18 C18            3.4638    -6.3545     5.0095 C.2     
  19 C19            3.4459    -6.1825     3.5684 C.2     
  20 C20            4.2340    -7.4513     5.7274 C.3     
  21 C21            4.3652    -7.0746     7.2049 C.3     
  22 C22            2.9839    -6.7056     7.7543 C.3     
  23 C23            2.5443    -5.3711     7.1464 C.3     
  24 C24            4.1744    -7.0568     2.6438 C.2     
  25 O25            5.3192    -6.7899     2.3284 O.2     
  26 N26            3.5763    -8.1560     2.1433 N.am    
  27 C27            4.3042    -9.0296     1.2196 C.3     
  28 C28            5.1285   -10.0678     2.0032 C.3     
  29 N29            4.6061   -11.4022     1.6374 N.3     
  30 C30            4.0001   -11.2446     0.2905 C.3     
  31 C31            3.3126    -9.8584     0.3711 C.3     
  32 F32            1.2941     1.9870     0.0004 F       
  33 F33           -0.6950     1.9662    -1.1231 F       
  34 F34           -0.6732     1.9539     1.1613 F       
  35 H35           -2.9275    -0.1194     0.7857 H       
  36 H36           -2.6657     0.3802    -0.9053 H       
  37 H37           -4.4300    -1.4394    -0.5877 H       
  38 H38           -3.1181    -1.8579    -1.7153 H       
  39 H39           -3.0870    -2.6029     1.2396 H       
  40 H40           -3.7102    -3.6793    -0.0335 H       
  41 H41           -1.5421    -3.7541    -1.1396 H       
  42 H42           -1.2697    -4.0679     0.5939 H       
  43 H43            1.0913    -4.0941    -0.4565 H       
  44 H44            2.5086    -3.0237    -0.3390 H       
  45 H45            2.9451    -5.2426     1.1269 H       
  46 H46            3.6957    -8.3948     5.6373 H       
  47 H47            5.2257    -7.5504     5.2861 H       
  48 H48            4.7647    -7.9216     7.7627 H       
  49 H49            5.0368    -6.2219     7.3051 H       
  50 H50            2.2663    -7.4814     7.4876 H       
  51 H51            3.0359    -6.6127     8.8391 H       
  52 H52            3.1588    -4.5662     7.5499 H       
  53 H53            1.4964    -5.1881     7.3843 H       
  54 H54            2.6639    -8.3687     2.3947 H       
  55 H55            4.9546    -8.4389     0.5745 H       
  56 H56            6.1801    -9.9922     1.7268 H       
  57 H57            5.0106    -9.9037     3.0743 H       
  58 H58            5.3455   -12.0886     1.6231 H       
  59 H59            4.7703   -11.2477    -0.4807 H       
  60 H60            3.2654   -12.0281     0.1051 H       
  61 H61            2.3472    -9.9351     0.8714 H       
  62 H62            3.1998    -9.4254    -0.6228 H       
@<TRIPOS>BOND
   1    1    2 1
   2    1   32 1
   3    1   33 1
   4    1   34 1
   5    2    3 2
   6    2    6 1
   7    3    4 1
   8    4    5 1
   9    4   11 1
  10    5    6 2
  11    5   10 1
  12    6    7 1
  13    7    8 1
  14    7   35 1
  15    7   36 1
  16    8    9 1
  17    8   37 1
  18    8   38 1
  19    9   10 1
  20    9   39 1
  21    9   40 1
  22   10   41 1
  23   10   42 1
  24   11   12 1
  25   11   43 1
  26   11   44 1
  27   12   13 2
  28   12   14 am
  29   14   15 1
  30   14   45 1
  31   15   16 1
  32   15   19 2
  33   16   17 1
  34   17   18 2
  35   17   23 1
  36   18   19 1
  37   18   20 1
  38   19   24 1
  39   20   21 1
  40   20   46 1
  41   20   47 1
  42   21   22 1
  43   21   48 1
  44   21   49 1
  45   22   23 1
  46   22   50 1
  47   22   51 1
  48   23   52 1
  49   23   53 1
  50   24   25 2
  51   24   26 am
  52   26   27 1
  53   26   54 1
  54   27   28 1
  55   27   31 1
  56   27   55 1
  57   28   29 1
  58   28   56 1
  59   28   57 1
  60   29   30 1
  61   29   58 1
  62   30   31 1
  63   30   59 1
  64   30   60 1
  65   31   61 1
  66   31   62 1

#	End of record

