#	Name: ASD01150098
#	Creating user name:	WinNT
#	Creation time:	15. 06. 2019 19:03

#	Modifying user name:	WinNT
#	Modification time:	15. 06. 2019 19:03

#	Program:	/corina/corina34_cracker 3.40 0067  02.08.2006

@<TRIPOS>MOLECULE
ASD01150098
  36   37    0    0    0
SMALL
NO_CHARGES


@<TRIPOS>ATOM
   1 C1            -0.0166     1.3696     0.0096 C.2     
   2 N2             0.0021    -0.0041     0.0020 N.am    
   3 C3            -1.1495    -0.7003     0.0092 C.2     
   4 N4            -2.3390    -0.0718     0.0235 N.am    
   5 C5            -2.4028     1.2743     0.0309 C.2     
   6 C6            -1.2164     2.0246     0.0303 C.2     
   7 C7             1.2829    -0.7150    -0.0145 C.3     
   8 C8             1.7431    -0.9702     1.4222 C.3     
   9 C9             3.0807    -1.7127     1.4050 C.3     
  10 N10            1.1580     2.0774     0.0022 N.pl3   
  11 O11           -1.1145    -1.9156     0.0024 O.2     
  12 O12           -3.4843     1.8369     0.0434 O.2     
  13 C13           -3.5755    -0.8575     0.0305 C.3     
  14 C14           -3.9865    -1.1345     1.4537 C.ar    
  15 C15           -4.8170    -0.2510     2.1175 C.ar    
  16 C16           -5.1943    -0.5045     3.4227 C.ar    
  17 C17           -4.7406    -1.6429     4.0650 C.ar    
  18 C18           -3.9094    -2.5268     3.4001 C.ar    
  19 C19           -3.5374    -2.2750     2.0930 C.ar    
  20 Cl20          -5.2136    -1.9617     5.7046 Cl      
  21 H21           -1.2511     3.1040     0.0365 H       
  22 H22            1.1636    -1.6667    -0.5323 H       
  23 H23            2.0274    -0.1104    -0.5325 H       
  24 H24            1.8624    -0.0185     1.9400 H       
  25 H25            0.9986    -1.5748     1.9402 H       
  26 H26            3.4086    -1.8945     2.4285 H       
  27 H27            2.9614    -2.6644     0.8872 H       
  28 H28            3.8252    -1.1081     0.8870 H       
  29 H29            2.0069     1.6083    -0.0085 H       
  30 H30            1.1398     3.0472     0.0075 H       
  31 H31           -4.3641    -0.2984    -0.4731 H       
  32 H32           -3.4095    -1.8007    -0.4899 H       
  33 H33           -5.1708     0.6378     1.6162 H       
  34 H34           -5.8428     0.1860     3.9413 H       
  35 H35           -3.5549    -3.4156     3.9009 H       
  36 H36           -2.8885    -2.9649     1.5739 H       
@<TRIPOS>BOND
   1    1    2 1
   2    1   10 1
   3    1    6 2
   4    2    3 am
   5    2    7 1
   6    3    4 am
   7    3   11 2
   8    4    5 am
   9    4   13 1
  10    5    6 1
  11    5   12 2
  12    6   21 1
  13    7    8 1
  14    7   22 1
  15    7   23 1
  16    8    9 1
  17    8   24 1
  18    8   25 1
  19    9   26 1
  20    9   27 1
  21    9   28 1
  22   10   29 1
  23   10   30 1
  24   13   14 1
  25   13   31 1
  26   13   32 1
  27   14   15 ar
  28   14   19 ar
  29   15   16 ar
  30   15   33 1
  31   16   17 ar
  32   16   34 1
  33   17   18 ar
  34   17   20 1
  35   18   19 ar
  36   18   35 1
  37   19   36 1

#	End of record

