#	Name: ASD01903096
#	Creating user name:	WinNT
#	Creation time:	15. 06. 2019 19:54

#	Modifying user name:	WinNT
#	Modification time:	15. 06. 2019 19:54

#	Program:	/corina/corina34_cracker 3.40 0067  02.08.2006

@<TRIPOS>MOLECULE
ASD01903096
  29   31    0    0    0
SMALL
NO_CHARGES


@<TRIPOS>ATOM
   1 C1            -0.0160     1.2939     0.0210 C.2     
   2 N2             0.0004    -0.0032     0.0041 N.2     
   3 C3            -1.1736    -0.6198     0.0266 C.2     
   4 C4            -2.2478     0.1868     0.0646 C.2     
   5 S5            -1.6839     1.8562     0.0783 S.3     
   6 C6            -1.2930    -2.1004     0.0104 C.2     
   7 N7             1.1057     2.1107     0.0028 N.pl3   
   8 C8            -2.2708    -2.8633     0.6770 C.2     
   9 N9            -2.0458    -4.1254     0.4219 N.2     
  10 N10           -0.9242    -4.2176    -0.4112 N.pl3   
  11 C11           -0.4789    -2.9669    -0.6577 C.2     
  12 C12            0.9597     3.4910    -0.0934 C.ar    
  13 N13           -0.2440     4.0125    -0.2730 N.ar    
  14 C14           -0.4260     5.3159    -0.3694 C.ar    
  15 C15            0.6409     6.1879    -0.2856 C.ar    
  16 C16            1.9203     5.6813    -0.0973 C.ar    
  17 C17            2.0791     4.3112     0.0057 C.ar    
  18 C18           -1.8165     5.8595    -0.5741 C.3     
  19 Cl19          -3.9055    -0.3275     0.1009 Cl      
  20 H20            1.9916     1.7193     0.0572 H       
  21 H21           -3.0680    -2.4735     1.2925 H       
  22 H22           -0.5366    -5.0377    -0.7549 H       
  23 H23            0.3715    -2.7013    -1.2681 H       
  24 H24            0.4824     7.2531    -0.3659 H       
  25 H25            2.7714     6.3426    -0.0285 H       
  26 H26            3.0599     3.8834     0.1524 H       
  27 H27           -2.2792     6.0481     0.3947 H       
  28 H28           -1.7632     6.7904    -1.1386 H       
  29 H29           -2.4129     5.1333    -1.1264 H       
@<TRIPOS>BOND
   1    1    2 2
   2    1    7 1
   3    1    5 1
   4    2    3 1
   5    3    4 2
   6    3    6 1
   7    4    5 1
   8    4   19 1
   9    6    8 1
  10    6   11 2
  11    7   12 1
  12    7   20 1
  13    8    9 2
  14    8   21 1
  15    9   10 1
  16   10   11 1
  17   10   22 1
  18   11   23 1
  19   12   13 ar
  20   12   17 ar
  21   13   14 ar
  22   14   15 ar
  23   14   18 1
  24   15   16 ar
  25   15   24 1
  26   16   17 ar
  27   16   25 1
  28   17   26 1
  29   18   27 1
  30   18   28 1
  31   18   29 1

#	End of record

