#	Name: ASD01140385
#	Creating user name:	WinNT
#	Creation time:	15. 06. 2019 19:00

#	Modifying user name:	WinNT
#	Modification time:	15. 06. 2019 19:00

#	Program:	/corina/corina34_cracker 3.40 0067  02.08.2006

@<TRIPOS>MOLECULE
ASD01140385
  40   43    0    0    0
SMALL
NO_CHARGES


@<TRIPOS>ATOM
   1 S1            -0.0218     1.7597     0.0117 S.3     
   2 C2             0.0021    -0.0041     0.0020 C.2     
   3 N3             1.2501    -0.3826    -0.0119 N.2     
   4 N4             2.1146     0.5375    -0.0152 N.2     
   5 C5             1.6909     1.7654    -0.0046 C.2     
   6 O6             2.4758     2.8704    -0.0062 O.3     
   7 C7             6.0929     3.6690    -0.6230 C.3     
   8 C8             4.5689     3.8290    -0.7431 C.3     
   9 C9             3.8895     2.6620    -0.0208 C.3     
  10 C10            4.4062     2.5735     1.4180 C.3     
  11 C11            5.9412     2.4986     1.3917 C.3     
  12 C12            6.3449     1.4347     0.3451 C.3     
  13 C13            6.4452     2.2081    -0.9862 C.3     
  14 N14            6.4352     3.7795     0.8200 N.3     
  15 C15            7.8858     3.9152     1.0081 C.3     
  16 C16           -1.1794    -0.8928     0.0090 C.ar    
  17 C17           -1.0132    -2.2787    -0.0001 C.ar    
  18 C18           -2.1195    -3.1036     0.0064 C.ar    
  19 C19           -3.3944    -2.5572     0.0214 C.ar    
  20 C20           -3.5638    -1.1824     0.0305 C.ar    
  21 C21           -2.4643    -0.3491     0.0304 C.ar    
  22 F22           -4.4745    -3.3687     0.0268 F       
  23 Cl23          -1.9154    -4.8275    -0.0049 Cl      
  24 H24            6.6311     4.3884    -1.2401 H       
  25 H25            4.2633     4.7696    -0.2850 H       
  26 H26            4.2830     3.8234    -1.7950 H       
  27 H27            4.1135     1.7322    -0.5436 H       
  28 H28            4.0933     3.4576     1.9734 H       
  29 H29            4.0052     1.6794     1.8956 H       
  30 H30            6.3589     2.2875     2.3761 H       
  31 H31            7.3090     0.9961     0.6024 H       
  32 H32            5.5809     0.6603     0.2772 H       
  33 H33            5.7304     1.8139    -1.7086 H       
  34 H34            7.4586     2.1498    -1.3834 H       
  35 H35            8.2363     4.8114     0.4961 H       
  36 H36            8.1085     3.9941     2.0722 H       
  37 H37            8.3890     3.0407     0.5954 H       
  38 H38           -0.0208    -2.7046    -0.0126 H       
  39 H39           -4.5586    -0.7621     0.0419 H       
  40 H40           -2.5980     0.7225     0.0424 H       
@<TRIPOS>BOND
   1    1    2 1
   2    1    5 1
   3    2    3 2
   4    2   16 1
   5    3    4 1
   6    4    5 2
   7    5    6 1
   8    6    9 1
   9    7    8 1
  10    7   13 1
  11    7   14 1
  12    7   24 1
  13    8    9 1
  14    8   25 1
  15    8   26 1
  16    9   10 1
  17    9   27 1
  18   10   11 1
  19   10   28 1
  20   10   29 1
  21   11   12 1
  22   11   14 1
  23   11   30 1
  24   12   13 1
  25   12   31 1
  26   12   32 1
  27   13   33 1
  28   13   34 1
  29   14   15 1
  30   15   35 1
  31   15   36 1
  32   15   37 1
  33   16   17 ar
  34   16   21 ar
  35   17   18 ar
  36   17   38 1
  37   18   19 ar
  38   18   23 1
  39   19   20 ar
  40   19   22 1
  41   20   21 ar
  42   20   39 1
  43   21   40 1

#	End of record

