#	Name: ASD01028449
#	Creating user name:	WinNT
#	Creation time:	15. 06. 2019 18:57

#	Modifying user name:	WinNT
#	Modification time:	15. 06. 2019 18:57

#	Program:	/corina/corina34_cracker 3.40 0067  02.08.2006

@<TRIPOS>MOLECULE
ASD01028449
  48   52    0    0    0
SMALL
NO_CHARGES


@<TRIPOS>ATOM
   1 C1            -0.0171     1.4121     0.0098 C.ar    
   2 C2             0.0021    -0.0041     0.0020 C.ar    
   3 C3             1.2106     2.1118     0.0018 C.ar    
   4 C4             2.3793     1.3716    -0.0133 C.ar    
   5 C5             2.3160    -0.0161    -0.0202 C.ar    
   6 N6             1.1705    -0.6564    -0.0123 N.ar    
   7 O7             1.2422     3.4673     0.0084 O.3     
   8 C8             2.5302     4.0862    -0.0005 C.3     
   9 C9             2.3676     5.5844     0.0086 C.2     
  10 N10            2.2911     6.3793     1.1112 N.pl3   
  11 C11            2.1482     7.6619     0.6407 C.2     
  12 N12            2.1450     7.5868    -0.6801 N.2     
  13 N13            2.2800     6.3594    -1.0413 N.2     
  14 C14            2.3293     6.1326     2.4500 C.2     
  15 C15            2.2262     7.1562     3.3422 C.2     
  16 C16            2.0783     8.4867     2.8819 C.2     
  17 C17            2.0403     8.7353     1.5479 C.2     
  18 C18            2.2685     6.8768     4.7976 C.ar    
  19 C19           -1.2149    -0.7042     0.0100 C.ar    
  20 C20           -2.4012    -0.0062     0.0251 C.ar    
  21 C21           -2.4084     1.3917     0.0326 C.ar    
  22 C22           -1.2427     2.0939     0.0310 C.ar    
  23 O23           -3.5785    -0.6836     0.0324 O.3     
  24 C24           -4.7757     0.0965     0.0481 C.3     
  25 C25            3.3249     7.3620     5.5699 C.ar    
  26 C26            3.3674     7.1041     6.9208 C.ar    
  27 C27            2.3511     6.3555     7.5217 C.ar    
  28 C28            1.2909     5.8690     6.7467 C.ar    
  29 C29            1.2497     6.1344     5.3939 C.ar    
  30 F30            0.3074     5.1448     7.3242 F       
  31 C31            2.3944     6.0860     8.9274 C.1     
  32 N32            2.4288     5.8722    10.0426 N.1     
  33 H33            3.3371     1.8706    -0.0202 H       
  34 H34            3.2348    -0.5836    -0.0325 H       
  35 H35            3.0885     3.7759     0.8827 H       
  36 H36            3.0719     3.7850    -0.8972 H       
  37 H37            2.4417     5.1192     2.8061 H       
  38 H38            1.9964     9.2996     3.5882 H       
  39 H39            1.9280     9.7462     1.1850 H       
  40 H40           -1.2202    -1.7841     0.0039 H       
  41 H41           -3.3500     1.9205     0.0441 H       
  42 H42           -1.2613     3.1737     0.0368 H       
  43 H43           -4.7912     0.7203     0.9418 H       
  44 H44           -4.8080     0.7304    -0.8380 H       
  45 H45           -5.6412    -0.5662     0.0525 H       
  46 H46            4.1104     7.9405     5.1064 H       
  47 H47            4.1859     7.4797     7.5168 H       
  48 H48            0.4328     5.7601     4.7947 H       
@<TRIPOS>BOND
   1    1    2 ar
   2    1    3 ar
   3    1   22 ar
   4    2   19 ar
   5    2    6 ar
   6    3    4 ar
   7    3    7 1
   8    4    5 ar
   9    4   33 1
  10    5    6 ar
  11    5   34 1
  12    7    8 1
  13    8    9 1
  14    8   35 1
  15    8   36 1
  16    9   10 1
  17    9   13 2
  18   10   11 1
  19   10   14 1
  20   11   12 2
  21   11   17 1
  22   12   13 1
  23   14   15 2
  24   14   37 1
  25   15   16 1
  26   15   18 1
  27   16   17 2
  28   16   38 1
  29   17   39 1
  30   18   25 ar
  31   18   29 ar
  32   19   20 ar
  33   19   40 1
  34   20   21 ar
  35   20   23 1
  36   21   22 ar
  37   21   41 1
  38   22   42 1
  39   23   24 1
  40   24   43 1
  41   24   44 1
  42   24   45 1
  43   25   26 ar
  44   25   46 1
  45   26   27 ar
  46   26   47 1
  47   27   28 ar
  48   27   31 1
  49   28   29 ar
  50   28   30 1
  51   29   48 1
  52   31   32 3

#	End of record

