#	Name: ASD01884491
#	Creating user name:	WinNT
#	Creation time:	15. 06. 2019 19:48

#	Modifying user name:	WinNT
#	Modification time:	15. 06. 2019 19:48

#	Program:	/corina/corina34_cracker 3.40 0067  02.08.2006

@<TRIPOS>MOLECULE
ASD01884491
  34   36    0    0    0
SMALL
NO_CHARGES


@<TRIPOS>ATOM
   1 C1            -0.0164     1.3575     0.0095 C.2     
   2 C2             0.0021    -0.0041     0.0020 C.2     
   3 C3             1.2440    -0.6750    -0.0134 C.2     
   4 C4             2.4025     0.0466    -0.0206 C.2     
   5 N5             2.3701     1.4022    -0.0126 N.am    
   6 C6             1.1987     2.0651     0.0017 C.2     
   7 C7             3.6267     2.1552    -0.0201 C.3     
   8 O8             1.1913     3.2855     0.0092 O.2     
   9 C9             4.0443     2.4215    -1.4434 C.ar    
  10 C10            3.6203     3.5707    -2.0843 C.ar    
  11 C11            4.0030     3.8155    -3.3896 C.ar    
  12 C12            4.8104     2.9102    -4.0549 C.ar    
  13 C13            5.2344     1.7603    -3.4129 C.ar    
  14 C14            4.8557     1.5194    -2.1057 C.ar    
  15 Cl15           5.2910     3.2167    -5.6946 Cl      
  16 C16            1.2898    -2.1583    -0.0214 C.ar    
  17 C17            0.8138    -2.8890     1.0708 C.ar    
  18 C18            1.8027    -2.8445    -1.1199 C.ar    
  19 N19            1.8443    -4.1612    -1.1288 N.ar    
  20 C20            1.4074    -4.8785    -0.1104 C.ar    
  21 C21            0.8785    -4.2703     1.0152 C.ar    
  22 Cl22           1.4904    -6.6108    -0.1867 Cl      
  23 H23           -0.9563     1.8894     0.0169 H       
  24 H24           -0.9217    -0.5635     0.0082 H       
  25 H25            3.3528    -0.4663    -0.0325 H       
  26 H26            3.4857     3.1025     0.5005 H       
  27 H27            4.4006     1.5757     0.4832 H       
  28 H28            2.9897     4.2771    -1.5650 H       
  29 H29            3.6714     4.7131    -3.8904 H       
  30 H30            5.8648     1.0533    -3.9317 H       
  31 H31            5.1866     0.6218    -1.6044 H       
  32 H32            0.4061    -2.3883     1.9365 H       
  33 H33            2.1694    -2.2919    -1.9724 H       
  34 H34            0.5243    -4.8671     1.8427 H       
@<TRIPOS>BOND
   1    1    2 2
   2    1    6 1
   3    1   23 1
   4    2    3 1
   5    2   24 1
   6    3    4 2
   7    3   16 1
   8    4    5 1
   9    4   25 1
  10    5    6 am
  11    5    7 1
  12    6    8 2
  13    7    9 1
  14    7   26 1
  15    7   27 1
  16    9   10 ar
  17    9   14 ar
  18   10   11 ar
  19   10   28 1
  20   11   12 ar
  21   11   29 1
  22   12   13 ar
  23   12   15 1
  24   13   14 ar
  25   13   30 1
  26   14   31 1
  27   16   17 ar
  28   16   18 ar
  29   17   21 ar
  30   17   32 1
  31   18   19 ar
  32   18   33 1
  33   19   20 ar
  34   20   21 ar
  35   20   22 1
  36   21   34 1

#	End of record

