#	Name: ASD01885443
#	Creating user name:	WinNT
#	Creation time:	15. 06. 2019 19:49

#	Modifying user name:	WinNT
#	Modification time:	15. 06. 2019 19:49

#	Program:	/corina/corina34_cracker 3.40 0067  02.08.2006

@<TRIPOS>MOLECULE
ASD01885443
  35   37    0    0    0
SMALL
NO_CHARGES


@<TRIPOS>ATOM
   1 C1            -0.0169     1.3920     0.0097 C.ar    
   2 C2             0.0021    -0.0041     0.0020 C.ar    
   3 N3            -1.1140    -0.7730     0.0203 N.2     
   4 C4            -2.1908    -0.5678    -0.6466 C.2     
   5 C5            -2.3521     0.6323    -1.5423 C.3     
   6 C6            -2.2800     1.8710    -0.6857 C.2     
   7 N7            -1.1827     2.1468     0.0191 N.am    
   8 C8             1.1872     2.0916     0.0020 C.ar    
   9 C9             2.4015     1.4087    -0.0183 C.ar    
  10 C10            2.4113     0.0099    -0.0314 C.ar    
  11 C11            1.2376    -0.6790    -0.0216 C.ar    
  12 C12           -3.2993    -1.5324    -0.5334 C.ar    
  13 O13           -3.2295     2.6243    -0.6385 O.2     
  14 C14           -4.4923    -1.3459    -1.2444 C.ar    
  15 C15           -5.5037    -2.2750    -1.1083 C.ar    
  16 N16           -5.3583    -3.3250    -0.3237 N.ar    
  17 C17           -4.2529    -3.5394     0.3633 C.ar    
  18 C18           -3.1881    -2.6656     0.2841 C.ar    
  19 C19            3.6724     2.1582    -0.0263 C.2     
  20 O20            3.6613     3.3731    -0.0153 O.2     
  21 O21            4.8453     1.4953    -0.0459 O.3     
  22 C22           -4.1495    -4.7586     1.2430 C.3     
  23 H23           -1.5518     0.6494    -2.2821 H       
  24 H24           -3.3181     0.5886    -2.0455 H       
  25 H25           -1.1999     2.9350     0.5842 H       
  26 H26            1.1797     3.1715     0.0114 H       
  27 H27            3.3503    -0.5233    -0.0493 H       
  28 H28            1.2541    -1.7589    -0.0319 H       
  29 H29           -4.6186    -0.4882    -1.8885 H       
  30 H30           -6.4272    -2.1403    -1.6518 H       
  31 H31           -2.2861    -2.8475     0.8495 H       
  32 H32            5.6514     2.0294    -0.0505 H       
  33 H33           -3.7389    -5.5882     0.6675 H       
  34 H34           -3.4948    -4.5429     2.0874 H       
  35 H35           -5.1401    -5.0264     1.6106 H       
@<TRIPOS>BOND
   1    1    2 ar
   2    1    8 ar
   3    1    7 1
   4    2    3 1
   5    2   11 ar
   6    3    4 2
   7    4    5 1
   8    4   12 1
   9    5    6 1
  10    5   23 1
  11    5   24 1
  12    6    7 am
  13    6   13 2
  14    7   25 1
  15    8    9 ar
  16    8   26 1
  17    9   10 ar
  18    9   19 1
  19   10   11 ar
  20   10   27 1
  21   11   28 1
  22   12   14 ar
  23   12   18 ar
  24   14   15 ar
  25   14   29 1
  26   15   16 ar
  27   15   30 1
  28   16   17 ar
  29   17   18 ar
  30   17   22 1
  31   18   31 1
  32   19   20 2
  33   19   21 1
  34   21   32 1
  35   22   33 1
  36   22   34 1
  37   22   35 1

#	End of record

