#	Name: ASD01883120
#	Creating user name:	WinNT
#	Creation time:	15. 06. 2019 19:45

#	Modifying user name:	WinNT
#	Modification time:	15. 06. 2019 19:45

#	Program:	/corina/corina34_cracker 3.40 0067  02.08.2006

@<TRIPOS>MOLECULE
ASD01883120
  44   46    0    0    0
SMALL
NO_CHARGES


@<TRIPOS>ATOM
   1 N1            -0.0673     1.2363     1.3196 N.am    
   2 C2            -0.0322    -0.0384     0.8890 C.2     
   3 C3            -1.2413    -0.7416     0.6635 C.2     
   4 C4            -2.4601    -0.0810     0.8984 C.2     
   5 C5            -2.4302     1.2536     1.3486 C.2     
   6 C6            -1.2447     1.8718     1.5511 C.2     
   7 O7             1.0388    -0.5871     0.6928 O.2     
   8 C8            -1.2224    -2.0981     0.2049 C.1     
   9 N9            -1.2075    -3.1742    -0.1588 N.1     
  10 C10            1.1909     1.9509     1.5490 C.3     
  11 C11            1.6160     2.6610     0.2621 C.3     
  12 C12            2.9300     3.4073     0.5017 C.3     
  13 C13            3.3551     4.1174    -0.7851 C.3     
  14 C14           -3.7469    -0.7728     0.6771 C.ar    
  15 C15           -4.5979    -1.0306     1.7545 C.ar    
  16 C16           -5.7968    -1.6753     1.5440 C.ar    
  17 C17           -6.1601    -2.0695     0.2619 C.ar    
  18 C18           -5.3161    -1.8153    -0.8126 C.ar    
  19 C19           -4.1183    -1.1656    -0.6111 C.ar    
  20 O20           -7.3425    -2.7052     0.0584 O.3     
  21 C21           -8.4751    -1.9619     0.0737 C.ar    
  22 N22           -9.6471    -2.5693    -0.0190 N.ar    
  23 C23          -10.7723    -1.8738    -0.0073 C.ar    
  24 C24          -10.7124    -0.4935     0.1039 C.ar    
  25 C25           -9.4680     0.1094     0.1990 C.ar    
  26 N26           -8.3825    -0.6467     0.1864 N.ar    
  27 H27           -3.3537     1.7814     1.5358 H       
  28 H28           -1.2342     2.8950     1.8967 H       
  29 H29            1.0516     2.6867     2.3410 H       
  30 H30            1.9634     1.2409     1.8444 H       
  31 H31            1.7553     1.9252    -0.5299 H       
  32 H32            0.8435     3.3710    -0.0333 H       
  33 H33            2.7907     4.1431     1.2937 H       
  34 H34            3.7025     2.6973     0.7971 H       
  35 H35            3.4944     3.3816    -1.5772 H       
  36 H36            2.5826     4.8274    -1.0805 H       
  37 H37            4.2912     4.6491    -0.6145 H       
  38 H38           -4.3160    -0.7252     2.7513 H       
  39 H39           -6.4552    -1.8750     2.3765 H       
  40 H40           -5.6018    -2.1236    -1.8074 H       
  41 H41           -3.4630    -0.9684    -1.4466 H       
  42 H42          -11.7258    -2.3752    -0.0836 H       
  43 H43          -11.6152     0.0991     0.1157 H       
  44 H44           -9.3857     1.1826     0.2868 H       
@<TRIPOS>BOND
   1    1    2 am
   2    1   10 1
   3    1    6 1
   4    2    3 1
   5    2    7 2
   6    3    4 2
   7    3    8 1
   8    4    5 1
   9    4   14 1
  10    5    6 2
  11    5   27 1
  12    6   28 1
  13    8    9 3
  14   10   11 1
  15   10   29 1
  16   10   30 1
  17   11   12 1
  18   11   31 1
  19   11   32 1
  20   12   13 1
  21   12   33 1
  22   12   34 1
  23   13   35 1
  24   13   36 1
  25   13   37 1
  26   14   15 ar
  27   14   19 ar
  28   15   16 ar
  29   15   38 1
  30   16   17 ar
  31   16   39 1
  32   17   18 ar
  33   17   20 1
  34   18   19 ar
  35   18   40 1
  36   19   41 1
  37   20   21 1
  38   21   22 ar
  39   21   26 ar
  40   22   23 ar
  41   23   24 ar
  42   23   42 1
  43   24   25 ar
  44   24   43 1
  45   25   26 ar
  46   25   44 1

#	End of record

