#	Name: ASD00841660
#	Creating user name:	WinNT
#	Creation time:	15. 06. 2019 18:42

#	Modifying user name:	WinNT
#	Modification time:	15. 06. 2019 18:42

#	Program:	/corina/corina34_cracker 3.40 0067  02.08.2006

@<TRIPOS>MOLECULE
ASD00841660
  91   96    0    0    0
SMALL
NO_CHARGES


@<TRIPOS>ATOM
   1 F1            -0.0994    -3.1558     4.7109 F       
   2 C2            -0.0142     1.3803     0.0276 C.ar    
   3 C3             0.0033    -0.0066     0.0121 C.ar    
   4 C4             1.2149    -0.6826    -0.0059 C.ar    
   5 C5             2.4001     0.0266    -0.0082 C.ar    
   6 C6             2.3800     1.4092     0.0077 C.ar    
   7 C7             1.1742     2.0851     0.0252 C.ar    
   8 C8             1.2376    -2.1893    -0.0222 C.3     
   9 C9             0.4952    -2.7178    -1.2311 C.2     
  10 N10            2.6177    -2.6807    -0.0124 N.am    
  11 C11            3.4634    -2.3342    -1.0029 C.2     
  12 N12            4.7590    -2.7005    -0.9417 N.am    
  13 O13            3.0576    -1.6913    -1.9517 O.2     
  14 C14            5.2905    -3.3763     0.2497 C.3     
  15 C15            6.5169    -2.6053     0.7481 C.3     
  16 C16            7.5240    -2.4627    -0.3953 C.3     
  17 C17            6.8890    -1.6715    -1.5411 C.3     
  18 C18            5.6654    -2.4369    -2.0676 C.3     
  19 N19            8.7158    -1.7527     0.0880 N.3     
  20 C20            9.7549    -1.7008    -0.9498 C.3     
  21 C21           10.9449    -0.8868    -0.4362 C.3     
  22 N22           11.4628    -1.5034     0.7931 N.3     
  23 C23           10.4237    -1.5553     1.8310 C.3     
  24 C24            9.2337    -2.3693     1.3174 C.3     
  25 H25           11.8348    -2.4228     0.6076 H       
  26 O26            0.7754    -2.5155    -2.3937 O.2     
  27 N27           -0.5320    -3.4537    -0.7742 N.am    
  28 C28            0.4669    -2.7433     1.1540 C.ar    
  29 C29           -0.5771    -3.4890     0.6211 C.ar    
  30 C30            0.6298    -2.6298     2.5163 C.ar    
  31 C31           -0.2551    -3.2648     3.3734 C.ar    
  32 C32           -1.3003    -4.0114     2.8535 C.ar    
  33 C33           -1.4636    -4.1251     1.4872 C.ar    
  34 Cl34          -2.4098    -4.8075     3.9253 Cl      
  35 C35           -0.9839    -5.8421    -2.0648 C.ar    
  36 C36            0.1953    -5.9962    -2.7796 C.ar    
  37 C37           -1.6570    -6.9527    -1.5922 C.ar    
  38 C38           -1.1577    -8.2188    -1.8297 C.ar    
  39 C39            0.0215    -8.3782    -2.5443 C.ar    
  40 C40            0.6982    -7.2658    -3.0197 C.ar    
  41 O41            0.5120    -9.6238    -2.7780 O.3     
  42 O42            0.8564    -4.9037    -3.2444 O.3     
  43 C43           -0.2377   -10.7241    -2.2590 C.3     
  44 C44            2.0639    -5.1371    -3.9722 C.3     
  45 C45            2.6614    -3.7988    -4.4113 C.3     
  46 O46           -1.1642    -0.7021     0.0149 O.3     
  47 C47           -3.5736    -0.8889     0.0345 C.3     
  48 C48           -2.3731     0.0596     0.0342 C.3     
  49 S49           -1.6199    -4.2287    -1.7530 S.o2    
  50 O50           -2.7999    -4.4048    -0.9811 O.2     
  51 O51           -1.6003    -3.5424    -2.9971 O.2     
  52 H52           -0.9560     1.9089     0.0370 H       
  53 H53            3.3434    -0.4991    -0.0221 H       
  54 H54            3.3078     1.9619     0.0066 H       
  55 H55            1.1611     3.1650     0.0376 H       
  56 H56            2.9228    -3.2553     0.7070 H       
  57 H57            4.5289    -3.3950     1.0294 H       
  58 H58            5.5790    -4.3957    -0.0066 H       
  59 H59            6.2110    -1.6162     1.0890 H       
  60 H60            6.9776    -3.1486     1.5731 H       
  61 H61            7.8107    -3.4519    -0.7522 H       
  62 H62            6.5796    -0.6912    -1.1786 H       
  63 H63            7.6145    -1.5502    -2.3454 H       
  64 H64            5.9872    -3.3785    -2.5128 H       
  65 H65            5.1512    -1.8336    -2.8157 H       
  66 H66           10.0822    -2.7130    -1.1877 H       
  67 H67            9.3510    -1.2290    -1.8456 H       
  68 H68           11.7289    -0.8714    -1.1934 H       
  69 H69           10.6236     0.1329    -0.2242 H       
  70 H70           10.8276    -2.0271     2.7267 H       
  71 H71           10.0964    -0.5431     2.0688 H       
  72 H72            8.4498    -2.3848     2.0746 H       
  73 H73            9.5551    -3.3890     1.1053 H       
  74 H74            1.4462    -2.0471     2.9165 H       
  75 H75           -2.2805    -4.7087     1.0890 H       
  76 H76           -2.5747    -6.8308    -1.0360 H       
  77 H77           -1.6851    -9.0852    -1.4588 H       
  78 H78            1.6157    -7.3878    -3.5762 H       
  79 H79           -1.2386   -10.7177    -2.6907 H       
  80 H80            0.2626   -11.6579    -2.5155 H       
  81 H81           -0.3090   -10.6361    -1.1749 H       
  82 H82            2.7763    -5.6616    -3.3355 H       
  83 H83            1.8467    -5.7439    -4.8512 H       
  84 H84            3.5824    -3.9768    -4.9665 H       
  85 H85            1.9490    -3.2742    -5.0480 H       
  86 H86            2.8786    -3.1919    -3.5323 H       
  87 H87           -4.4957    -0.3078     0.0492 H       
  88 H88           -3.5482    -1.5074    -0.8627 H       
  89 H89           -3.5322    -1.5271     0.9171 H       
  90 H90           -2.3985     0.6782     0.9313 H       
  91 H91           -2.4145     0.6979    -0.8485 H       
@<TRIPOS>BOND
   1    1   31 1
   2    2    3 ar
   3    2    7 ar
   4    2   52 1
   5    3    4 ar
   6    3   46 1
   7    4    5 ar
   8    4    8 1
   9    5    6 ar
  10    5   53 1
  11    6    7 ar
  12    6   54 1
  13    7   55 1
  14    8    9 1
  15    8   10 1
  16    8   28 1
  17    9   26 2
  18    9   27 am
  19   10   11 am
  20   10   56 1
  21   11   12 am
  22   11   13 2
  23   12   14 1
  24   12   18 1
  25   14   15 1
  26   14   57 1
  27   14   58 1
  28   15   16 1
  29   15   59 1
  30   15   60 1
  31   16   17 1
  32   16   19 1
  33   16   61 1
  34   17   18 1
  35   17   62 1
  36   17   63 1
  37   18   64 1
  38   18   65 1
  39   19   20 1
  40   19   24 1
  41   20   21 1
  42   20   66 1
  43   20   67 1
  44   21   22 1
  45   21   68 1
  46   21   69 1
  47   22   23 1
  48   22   25 1
  49   23   24 1
  50   23   70 1
  51   23   71 1
  52   24   72 1
  53   24   73 1
  54   27   49 am
  55   27   29 1
  56   28   29 ar
  57   28   30 ar
  58   29   33 ar
  59   30   31 ar
  60   30   74 1
  61   31   32 ar
  62   32   33 ar
  63   32   34 1
  64   33   75 1
  65   35   36 ar
  66   35   37 ar
  67   35   49 1
  68   36   42 1
  69   36   40 ar
  70   37   38 ar
  71   37   76 1
  72   38   39 ar
  73   38   77 1
  74   39   40 ar
  75   39   41 1
  76   40   78 1
  77   41   43 1
  78   42   44 1
  79   43   79 1
  80   43   80 1
  81   43   81 1
  82   44   45 1
  83   44   82 1
  84   44   83 1
  85   45   84 1
  86   45   85 1
  87   45   86 1
  88   46   48 1
  89   47   48 1
  90   47   87 1
  91   47   88 1
  92   47   89 1
  93   48   90 1
  94   48   91 1
  95   49   50 2
  96   49   51 2

#	End of record

