#	Name: ASD08150634
#	Creating user name:	WinNT
#	Creation time:	15. 06. 2019 21:16

#	Modifying user name:	WinNT
#	Modification time:	15. 06. 2019 21:16

#	Program:	/corina/corina34_cracker 3.40 0067  02.08.2006

@<TRIPOS>MOLECULE
ASD08150634
  67   73    0    0    0
SMALL
NO_CHARGES


@<TRIPOS>ATOM
   1 N1             0.0680     1.4598     0.2856 N.am    
   2 C2             0.2009     0.1411     0.5169 C.2     
   3 C3             1.4672    -0.4750     0.5647 C.2     
   4 C4             2.5928     0.2625     0.3758 C.2     
   5 C5             2.4516     1.6946     0.1244 C.ar    
   6 C6             3.5715     2.5209    -0.0808 C.ar    
   7 N7             3.4344     3.8021    -0.3055 N.ar    
   8 C8             2.2330     4.3975    -0.3533 C.ar    
   9 C9             1.0507     3.6415    -0.1577 C.ar    
  10 C10            1.1642     2.2532     0.0876 C.ar    
  11 C11           -0.1959     4.2726    -0.2087 C.ar    
  12 C12           -0.2615     5.6353    -0.4507 C.ar    
  13 C13            0.9127     6.3767    -0.6437 C.ar    
  14 C14            2.1324     5.7772    -0.5972 C.ar    
  15 O15           -0.7977    -0.5366     0.6896 O.2     
  16 C16           -1.5797     6.3126    -0.5064 C.ar    
  17 C17           -1.2094     2.0262     0.2413 C.ar    
  18 C18           -1.6861     2.7493     1.3291 C.ar    
  19 C19           -2.9448     3.3085     1.2880 C.ar    
  20 C20           -3.7411     3.1487     0.1536 C.ar    
  21 C21           -3.2607     2.4229    -0.9362 C.ar    
  22 C22           -1.9986     1.8703    -0.8923 C.ar    
  23 C23           -5.0953     3.7486     0.1069 C.ar    
  24 C24           -2.7639     5.5595    -0.4659 C.ar    
  25 N25           -3.9408     6.1303    -0.5134 N.ar    
  26 C26           -4.0743     7.4579    -0.6023 C.ar    
  27 C27           -2.9254     8.2873    -0.6476 C.ar    
  28 C28           -1.6518     7.6954    -0.5930 C.ar    
  29 C29           -6.0021     3.5045     1.1394 C.ar    
  30 C30           -5.3471     8.0527    -0.6527 C.ar    
  31 C31           -5.4581     9.4061    -0.7434 C.ar    
  32 C32           -4.3274    10.2195    -0.7882 C.ar    
  33 C33           -3.0780     9.6810    -0.7417 C.ar    
  34 C34           -7.2598     4.0614     1.0974 C.ar    
  35 C35           -7.6290     4.8719     0.0199 C.ar    
  36 C36           -6.7200     5.1156    -1.0136 C.ar    
  37 C37           -5.4610     4.5619    -0.9667 C.ar    
  38 C38           -8.9775     5.4692    -0.0266 C.2     
  39 O39           -9.7673     5.2568     0.8718 O.2     
  40 C40           -4.1181     2.2482    -2.1631 C.3     
  41 F41           -3.5044     1.3434    -3.0360 F       
  42 F42           -5.3733     1.7566    -1.7886 F       
  43 F43           -4.2727     3.4823    -2.8035 F       
  44 O44           -9.3328     6.2504    -1.0654 O.3     
  45 C45          -10.6749     6.8043    -1.0448 C.3     
  46 H46            1.5434    -1.5358     0.7523 H       
  47 H47            3.5685    -0.1991     0.4110 H       
  48 H48            4.5614     2.0901    -0.0518 H       
  49 H49           -1.1010     3.7022    -0.0608 H       
  50 H50            0.8476     7.4381    -0.8323 H       
  51 H51            3.0266     6.3638    -0.7478 H       
  52 H52           -1.0694     2.8725     2.2071 H       
  53 H53           -3.3147     3.8698     2.1333 H       
  54 H54           -1.6244     1.3119    -1.7376 H       
  55 H55           -2.7023     4.4836    -0.3943 H       
  56 H56           -0.7563     8.2983    -0.6254 H       
  57 H57           -5.7167     2.8780     1.9715 H       
  58 H58           -6.2341     7.4375    -0.6198 H       
  59 H59           -6.4387     9.8571    -0.7818 H       
  60 H60           -4.4439    11.2907    -0.8610 H       
  61 H61           -2.2090    10.3214    -0.7772 H       
  62 H62           -7.9614     3.8721     1.8963 H       
  63 H63           -7.0042     5.7413    -1.8467 H       
  64 H64           -4.7584     4.7500    -1.7651 H       
  65 H65          -10.8309     7.4118    -1.9363 H       
  66 H66          -11.4025     5.9930    -1.0261 H       
  67 H67          -10.7986     7.4239    -0.1566 H       
@<TRIPOS>BOND
   1    1    2 am
   2    1   10 1
   3    1   17 1
   4    2    3 1
   5    2   15 2
   6    3    4 2
   7    3   46 1
   8    4    5 1
   9    4   47 1
  10    5    6 ar
  11    5   10 ar
  12    6    7 ar
  13    6   48 1
  14    7    8 ar
  15    8    9 ar
  16    8   14 ar
  17    9   10 ar
  18    9   11 ar
  19   11   12 ar
  20   11   49 1
  21   12   13 ar
  22   12   16 1
  23   13   14 ar
  24   13   50 1
  25   14   51 1
  26   16   24 ar
  27   16   28 ar
  28   17   18 ar
  29   17   22 ar
  30   18   19 ar
  31   18   52 1
  32   19   20 ar
  33   19   53 1
  34   20   21 ar
  35   20   23 1
  36   21   22 ar
  37   21   40 1
  38   22   54 1
  39   23   29 ar
  40   23   37 ar
  41   24   25 ar
  42   24   55 1
  43   25   26 ar
  44   26   27 ar
  45   26   30 ar
  46   27   28 ar
  47   27   33 ar
  48   28   56 1
  49   29   34 ar
  50   29   57 1
  51   30   31 ar
  52   30   58 1
  53   31   32 ar
  54   31   59 1
  55   32   33 ar
  56   32   60 1
  57   33   61 1
  58   34   35 ar
  59   34   62 1
  60   35   36 ar
  61   35   38 1
  62   36   37 ar
  63   36   63 1
  64   37   64 1
  65   38   39 2
  66   38   44 1
  67   40   41 1
  68   40   42 1
  69   40   43 1
  70   44   45 1
  71   45   65 1
  72   45   66 1
  73   45   67 1

#	End of record

