#	Name: ASD03330734
#	Creating user name:	WinNT
#	Creation time:	15. 06. 2019 20:37

#	Modifying user name:	WinNT
#	Modification time:	15. 06. 2019 20:37

#	Program:	/corina/corina34_cracker 3.40 0067  02.08.2006

@<TRIPOS>MOLECULE
ASD03330734
  70   73    0    0    0
SMALL
NO_CHARGES


@<TRIPOS>ATOM
   1 C1             0.5219     1.9168     0.2195 C.2     
   2 N2             0.6129     0.5755     0.0170 N.pl3   
   3 C3             1.7901     2.3828     0.3900 C.2     
   4 N4             2.6339     1.3340     0.2735 N.2     
   5 C5             1.9365     0.2462     0.0438 C.2     
   6 C6             2.4927    -1.1102    -0.1526 C.ar    
   7 C7             2.1736     3.7810     0.6535 C.2     
   8 O8             1.3176     4.6410     0.7365 O.2     
   9 C9             3.8541     5.4968     1.0647 C.3     
  10 N10            3.4729     4.1068     0.8026 N.am    
  11 C11            3.7633     5.7762     2.5662 C.3     
  12 C12            4.7094     4.8375     3.3177 C.3     
  13 C13            4.1615     7.2279     2.8399 C.3     
  14 C14            5.2676     5.7270     0.5954 C.2     
  15 N15            5.7036     6.7523    -0.0961 N.2     
  16 C16           -0.5202    -0.3333    -0.1776 C.3     
  17 C17           -1.4810     0.2744    -1.2043 C.3     
  18 C18           -2.4799     1.1862    -0.4992 C.3     
  19 N19           -1.8642     1.8544     0.6490 N.3     
  20 C20           -0.7523     2.7207     0.2301 C.3     
  21 C21            2.3283     5.5424     3.0426 C.3     
  22 C22            1.9414    -2.1985     0.5245 C.ar    
  23 C23            3.5687    -1.3084    -1.0214 C.ar    
  24 C24            4.0826    -2.5795    -1.1999 C.ar    
  25 C25            3.5335    -3.6514    -0.5209 C.ar    
  26 C26            2.4641    -3.4611     0.3368 C.ar    
  27 C27            7.0170     6.5308    -0.2827 C.2     
  28 N28            7.3073     5.4032     0.2942 N.2     
  29 O29            6.3173     4.9281     0.8095 O.3     
  30 C30            7.9758     7.4258    -1.0248 C.3     
  31 F31            4.1052    -0.2613    -1.6854 F       
  32 C32            4.0980    -5.0343    -0.7204 C.3     
  33 C33           -2.8627     2.6125     1.4147 C.3     
  34 C34           -3.6459     3.5247     0.4685 C.3     
  35 C35           -3.8257     1.6407     2.0996 C.3     
  36 H36            3.1801     6.1655     0.5293 H       
  37 H37            4.1556     3.4208     0.7364 H       
  38 H38            5.7318     5.0040     2.9783 H       
  39 H39            4.6448     5.0365     4.3874 H       
  40 H40            4.4258     3.8033     3.1227 H       
  41 H41            3.4875     7.8966     2.3045 H       
  42 H42            4.0968     7.4269     3.9096 H       
  43 H43            5.1838     7.3944     2.5005 H       
  44 H44           -0.1578    -1.2946    -0.5421 H       
  45 H45           -1.0407    -0.4746     0.7696 H       
  46 H46           -0.9138     0.8532    -1.9333 H       
  47 H47           -2.0178    -0.5246    -1.7157 H       
  48 H48           -2.8354     1.9391    -1.2027 H       
  49 H49           -3.3262     0.5915    -0.1553 H       
  50 H50           -0.6537     3.5509     0.9295 H       
  51 H51           -0.9480     3.1068    -0.7703 H       
  52 H52            2.0446     4.5082     2.8476 H       
  53 H53            2.2636     5.7414     4.1123 H       
  54 H54            1.6543     6.2111     2.5072 H       
  55 H55            1.1071    -2.0525     1.1946 H       
  56 H56            4.9141    -2.7354    -1.8712 H       
  57 H57            2.0403    -4.3031     0.8639 H       
  58 H58            8.4154     8.1422    -0.3308 H       
  59 H59            8.7653     6.8214    -1.4716 H       
  60 H60            7.4403     7.9611    -1.8089 H       
  61 H61            4.8897    -5.2121     0.0074 H       
  62 H62            3.3075    -5.7725    -0.5849 H       
  63 H63            4.5051    -5.1187    -1.7280 H       
  64 H64           -2.3595     3.2175     2.1689 H       
  65 H65           -4.2297     2.9164    -0.2223 H       
  66 H66           -4.3155     4.1603     1.0480 H       
  67 H67           -2.9505     4.1474    -0.0944 H       
  68 H68           -4.5666     2.2032     2.6677 H       
  69 H69           -4.3288     1.0357     1.3453 H       
  70 H70           -3.2677     0.9908     2.7736 H       
@<TRIPOS>BOND
   1    1    2 1
   2    1    3 2
   3    1   20 1
   4    2   16 1
   5    2    5 1
   6    3    4 1
   7    3    7 1
   8    4    5 2
   9    5    6 1
  10    6   23 ar
  11    6   22 ar
  12    7    8 2
  13    7   10 am
  14    9   10 1
  15    9   11 1
  16    9   14 1
  17    9   36 1
  18   10   37 1
  19   11   12 1
  20   11   13 1
  21   11   21 1
  22   12   38 1
  23   12   39 1
  24   12   40 1
  25   13   41 1
  26   13   42 1
  27   13   43 1
  28   14   15 2
  29   14   29 1
  30   15   27 1
  31   16   17 1
  32   16   44 1
  33   16   45 1
  34   17   18 1
  35   17   46 1
  36   17   47 1
  37   18   19 1
  38   18   48 1
  39   18   49 1
  40   19   20 1
  41   19   33 1
  42   20   50 1
  43   20   51 1
  44   21   52 1
  45   21   53 1
  46   21   54 1
  47   22   26 ar
  48   22   55 1
  49   23   24 ar
  50   23   31 1
  51   24   25 ar
  52   24   56 1
  53   25   26 ar
  54   25   32 1
  55   26   57 1
  56   27   28 2
  57   27   30 1
  58   28   29 1
  59   30   58 1
  60   30   59 1
  61   30   60 1
  62   32   61 1
  63   32   62 1
  64   32   63 1
  65   33   34 1
  66   33   35 1
  67   33   64 1
  68   34   65 1
  69   34   66 1
  70   34   67 1
  71   35   68 1
  72   35   69 1
  73   35   70 1

#	End of record

