#	Name: ASD00069491
#	Creating user name:	WinNT
#	Creation time:	15. 06. 2019 18:29

#	Modifying user name:	WinNT
#	Modification time:	15. 06. 2019 18:29

#	Program:	/corina/corina34_cracker 3.40 0067  02.08.2006

@<TRIPOS>MOLECULE
ASD00069491
  35   36    0    0    0
SMALL
NO_CHARGES


@<TRIPOS>ATOM
   1 O1            -0.0174     1.4305     0.0099 O.3     
   2 B2             0.0021    -0.0041     0.0020 Du      
   3 O3             1.0670    -0.3534    -0.8937 O.3     
   4 C4            -0.9361    -0.9782     0.7993 C.ar    
   5 C5            -0.7934    -2.3598     0.6871 C.ar    
   6 C6            -1.9325    -0.4825     1.6445 C.ar    
   7 C7            -2.7375    -1.3708     2.3287 C.ar    
   8 N8            -2.5775    -2.6732     2.1946 N.ar    
   9 C9            -1.6452    -3.1855     1.4106 C.ar    
  10 C10            2.1089     0.6053    -0.6139 C.3     
  11 C11            1.3736     1.8147    -0.0013 C.3     
  12 C12            1.5763     3.0578    -0.8700 C.3     
  13 C13            1.8670     2.0726     1.4238 C.3     
  14 C14            3.1105     0.0270     0.3877 C.3     
  15 C15            2.8198     1.0122    -1.9062 C.3     
  16 O16           -1.5218    -4.5328     1.3068 O.3     
  17 C17           -2.4304    -5.3282     2.0708 C.3     
  18 H18           -0.0326    -2.7823     0.0474 H       
  19 H19           -2.0706     0.5823     1.7612 H       
  20 H20           -3.5094    -0.9940     2.9834 H       
  21 H21            1.1819     2.8713    -1.8689 H       
  22 H22            1.0512     3.9024    -0.4239 H       
  23 H23            2.6403     3.2853    -0.9361 H       
  24 H24            2.9371     2.2793     1.4061 H       
  25 H25            1.3383     2.9292     1.8419 H       
  26 H26            1.6771     1.1929     2.0388 H       
  27 H27            3.5790    -0.8603    -0.0381 H       
  28 H28            3.8754     0.7717     0.6077 H       
  29 H29            2.5906    -0.2424     1.3071 H       
  30 H30            2.0954     1.4363    -2.6014 H       
  31 H31            3.5854     1.7548    -1.6813 H       
  32 H32            3.2852     0.1354    -2.3564 H       
  33 H33           -2.3075    -5.1036     3.1304 H       
  34 H34           -3.4532    -5.1035     1.7681 H       
  35 H35           -2.2237    -6.3842     1.8969 H       
@<TRIPOS>BOND
   1    1    2 1
   2    1   11 1
   3    2    3 1
   4    2    4 1
   5    3   10 1
   6    4    5 ar
   7    4    6 ar
   8    5    9 ar
   9    5   18 1
  10    6    7 ar
  11    6   19 1
  12    7    8 ar
  13    7   20 1
  14    8    9 ar
  15    9   16 1
  16   10   11 1
  17   10   14 1
  18   10   15 1
  19   11   12 1
  20   11   13 1
  21   12   21 1
  22   12   22 1
  23   12   23 1
  24   13   24 1
  25   13   25 1
  26   13   26 1
  27   14   27 1
  28   14   28 1
  29   14   29 1
  30   15   30 1
  31   15   31 1
  32   15   32 1
  33   16   17 1
  34   17   33 1
  35   17   34 1
  36   17   35 1

#	End of record

