#	Name: ASD06020036
#	Creating user name:	WinNT
#	Creation time:	15. 06. 2019 21:04

#	Modifying user name:	WinNT
#	Modification time:	15. 06. 2019 21:04

#	Program:	/corina/corina34_cracker 3.40 0067  02.08.2006

@<TRIPOS>MOLECULE
ASD06020036
  43   46    0    0    0
SMALL
NO_CHARGES


@<TRIPOS>ATOM
   1 C1            -0.0141     1.4733    -0.0452 C.2     
   2 C2             0.0054    -0.0049    -0.0429 C.ar    
   3 C3             1.2241    -0.6869    -0.0445 C.ar    
   4 C4             1.2428    -2.0650    -0.0418 C.ar    
   5 C5             0.0420    -2.7798    -0.0375 C.ar    
   6 C6            -1.1773    -2.0969    -0.0359 C.ar    
   7 C7            -1.1948    -0.7187    -0.0332 C.ar    
   8 O8             1.0305     2.0949    -0.0486 O.2     
   9 N9            -1.1901     2.1317    -0.0493 N.am    
  10 C10           -0.6529    -8.0846    -0.0276 C.ar    
  11 C11           -0.3494    -6.7186    -0.0307 C.ar    
  12 C12            0.9893    -6.3090    -0.0350 C.ar    
  13 C13            1.9757    -7.3284    -0.0360 C.ar    
  14 C14            1.5921    -8.6321    -0.0328 C.ar    
  15 N15            0.3157    -8.9836    -0.0287 N.ar    
  16 S16           -1.3678    -5.2831    -0.0298 S.3     
  17 C17            0.0615    -4.2578    -0.0352 C.2     
  18 N18            1.1318    -4.9836    -0.0372 N.2     
  19 N19           -1.9818    -8.4986    -0.0175 N.pl3   
  20 C20           -1.6192   -12.0239    -0.4493 C.ar    
  21 N21           -1.3309   -10.7423    -0.3458 N.ar    
  22 C22           -2.2890    -9.8467    -0.1263 C.ar    
  23 C23           -3.6093   -10.2854    -0.0065 C.ar    
  24 C24           -3.8637   -11.6378    -0.1220 C.ar    
  25 N25           -2.8546   -12.4693    -0.3410 N.ar    
  26 C26           -5.2712   -12.1623     0.0000 C.3     
  27 C27           -5.6193   -12.9828    -1.2435 C.3     
  28 Cl28          -2.6694    -2.9841    -0.0312 Cl      
  29 Cl29           2.7578    -2.9126    -0.0443 Cl      
  30 H30            2.1520    -0.1343    -0.0481 H       
  31 H31           -2.1370    -0.1908    -0.0275 H       
  32 H32           -2.0236     1.6356    -0.0507 H       
  33 H33           -1.2029     3.1016    -0.0509 H       
  34 H34            3.0244    -7.0703    -0.0396 H       
  35 H35            2.3491    -9.4024    -0.0339 H       
  36 H36           -2.6930    -7.8443     0.0656 H       
  37 H37           -0.8213   -12.7283    -0.6323 H       
  38 H38           -4.4114    -9.5846     0.1724 H       
  39 H39           -5.3482   -12.7936     0.8852 H       
  40 H40           -5.9642   -11.3256     0.0890 H       
  41 H41           -6.6374   -13.3621    -1.1553 H       
  42 H42           -5.5422   -12.3515    -2.1287 H       
  43 H43           -4.9263   -13.8194    -1.3325 H       
@<TRIPOS>BOND
   1    1    2 1
   2    1    8 2
   3    1    9 am
   4    2    3 ar
   5    2    7 ar
   6    3    4 ar
   7    3   30 1
   8    4    5 ar
   9    4   29 1
  10    5    6 ar
  11    5   17 1
  12    6    7 ar
  13    6   28 1
  14    7   31 1
  15    9   32 1
  16    9   33 1
  17   10   11 ar
  18   10   15 ar
  19   10   19 1
  20   11   12 ar
  21   11   16 1
  22   12   13 ar
  23   12   18 1
  24   13   14 ar
  25   13   34 1
  26   14   15 ar
  27   14   35 1
  28   16   17 1
  29   17   18 2
  30   19   22 1
  31   19   36 1
  32   20   21 ar
  33   20   25 ar
  34   20   37 1
  35   21   22 ar
  36   22   23 ar
  37   23   24 ar
  38   23   38 1
  39   24   25 ar
  40   24   26 1
  41   26   27 1
  42   26   39 1
  43   26   40 1
  44   27   41 1
  45   27   42 1
  46   27   43 1

#	End of record

