#	Name: ASD02560003
#	Creating user name:	WinNT
#	Creation time:	15. 06. 2019 20:24

#	Modifying user name:	WinNT
#	Modification time:	15. 06. 2019 20:24

#	Program:	/corina/corina34_cracker 3.40 0067  02.08.2006

@<TRIPOS>MOLECULE
ASD02560003
  47   48    0    0    0
SMALL
NO_CHARGES


@<TRIPOS>ATOM
   1 N1            -0.0646     1.2599     0.1829 N.am    
   2 C2            -0.0627    -0.0818     0.0753 C.2     
   3 N3             1.0904    -0.7642    -0.0462 N.am    
   4 C4             2.2906    -0.1072    -0.0631 C.2     
   5 C5             2.3178     1.2385     0.0431 C.2     
   6 C6             1.0972     1.9443     0.1704 C.2     
   7 O7             1.0964     3.1582     0.2677 O.2     
   8 O8            -1.1179    -0.6856     0.0885 O.2     
   9 C9             3.6301     1.9794     0.0269 C.3     
  10 C10            3.9304     2.4536    -1.3964 C.3     
  11 C11            3.5760    -0.8821    -0.1992 C.3     
  12 C12            4.1005    -1.2295     1.1702 C.ar    
  13 C13            1.0608    -2.2244    -0.1609 C.3     
  14 O14            0.6025    -2.5906    -1.4639 O.3     
  15 C15            1.6071    -2.5113    -2.4770 C.3     
  16 C16            1.0076    -2.9233    -3.8231 C.3     
  17 C17            3.6091    -2.3353     1.8385 C.ar    
  18 C18            4.0902    -2.6540     3.0947 C.ar    
  19 C19            5.0629    -1.8670     3.6824 C.ar    
  20 C20            5.5549    -0.7617     3.0137 C.ar    
  21 C21            5.0770    -0.4456     1.7557 C.ar    
  22 C22            3.5538    -3.8590     3.8236 C.3     
  23 C23            6.6151     0.0965     3.6546 C.3     
  24 H24           -0.9052     1.7367     0.2657 H       
  25 H25            3.5691     2.8410     0.6917 H       
  26 H26            4.4262     1.3157     0.3643 H       
  27 H27            3.9914     1.5920    -2.0612 H       
  28 H28            3.1343     3.1173    -1.7339 H       
  29 H29            4.8795     2.9895    -1.4082 H       
  30 H30            3.3905    -1.7979    -0.7603 H       
  31 H31            4.3118    -0.2754    -0.7269 H       
  32 H32            2.0636    -2.6216    -0.0035 H       
  33 H33            0.3857    -2.6343     0.5903 H       
  34 H34            1.9775    -1.4883    -2.5421 H       
  35 H35            2.4301    -3.1804    -2.2258 H       
  36 H36            1.7740    -2.8628    -4.5959 H       
  37 H37            0.6372    -3.9464    -3.7580 H       
  38 H38            0.1847    -2.2543    -4.0743 H       
  39 H39            2.8491    -2.9501     1.3793 H       
  40 H40            5.4383    -2.1156     4.6641 H       
  41 H41            5.4614     0.4180     1.2333 H       
  42 H42            4.1544    -4.7330     3.5718 H       
  43 H43            3.6001    -3.6837     4.8984 H       
  44 H44            2.5190    -4.0317     3.5278 H       
  45 H45            7.6010    -0.2800     3.3821 H       
  46 H46            6.5098     1.1242     3.3070 H       
  47 H47            6.5012     0.0659     4.7382 H       
@<TRIPOS>BOND
   1    1    2 am
   2    1    6 am
   3    1   24 1
   4    2    3 am
   5    2    8 2
   6    3    4 1
   7    3   13 1
   8    4    5 2
   9    4   11 1
  10    5    6 1
  11    5    9 1
  12    6    7 2
  13    9   10 1
  14    9   25 1
  15    9   26 1
  16   10   27 1
  17   10   28 1
  18   10   29 1
  19   11   12 1
  20   11   30 1
  21   11   31 1
  22   12   17 ar
  23   12   21 ar
  24   13   14 1
  25   13   32 1
  26   13   33 1
  27   14   15 1
  28   15   16 1
  29   15   34 1
  30   15   35 1
  31   16   36 1
  32   16   37 1
  33   16   38 1
  34   17   18 ar
  35   17   39 1
  36   18   19 ar
  37   18   22 1
  38   19   20 ar
  39   19   40 1
  40   20   21 ar
  41   20   23 1
  42   21   41 1
  43   22   42 1
  44   22   43 1
  45   22   44 1
  46   23   45 1
  47   23   46 1
  48   23   47 1

#	End of record

