#	Name: ASD02038278
#	Creating user name:	WinNT
#	Creation time:	15. 06. 2019 20:16

#	Modifying user name:	WinNT
#	Modification time:	15. 06. 2019 20:16

#	Program:	/corina/corina34_cracker 3.40 0067  02.08.2006

@<TRIPOS>MOLECULE
ASD02038278
  64   67    0    0    0
SMALL
NO_CHARGES


@<TRIPOS>ATOM
   1 C1            -0.0628     1.6713     0.1975 C.3     
   2 C2            -0.1114     0.1415     0.2035 C.3     
   3 N3             0.8293    -0.3720     1.2090 N.3     
   4 C4             0.7569    -1.8365     1.2982 C.3     
   5 C5             1.2569    -2.4525    -0.0100 C.3     
   6 O6             0.3542    -2.1225    -1.0675 O.3     
   7 C7             1.3338    -3.9732     0.1390 C.3     
   8 O8             1.9099    -4.5389    -1.0401 O.3     
   9 C9             2.0507    -5.8909    -1.0708 C.ar    
  10 C10            2.6027    -6.5053    -2.1853 C.ar    
  11 C11            1.6474    -6.6549     0.0148 C.ar    
  12 C12            1.7909    -8.0279    -0.0149 C.ar    
  13 C13            2.3384    -8.6439    -1.1324 C.ar    
  14 C14            2.7459    -7.8782    -2.2165 C.ar    
  15 C15            2.2000     0.0708     0.9182 C.3     
  16 C16            2.2487     1.6005     0.9122 C.3     
  17 N17            1.3080     2.1140    -0.0933 N.3     
  18 C18            1.3769     3.5065    -0.1781 C.ar    
  19 C19            0.5642     4.1904    -1.0734 C.ar    
  20 C20            0.6345     5.5673    -1.1543 C.ar    
  21 C21            1.5126     6.2651    -0.3455 C.ar    
  22 C22            2.3230     5.5874     0.5468 C.ar    
  23 C23            2.2540     4.2110     0.6367 C.ar    
  24 N24            2.4851   -10.0361    -1.1665 N.am    
  25 C25            3.3270   -10.6116    -2.0444 C.2     
  26 C26            4.1408    -9.7734    -2.9931 C.3     
  27 C27            3.3388    -8.5496    -3.4280 C.3     
  28 O28            3.4314   -11.8197    -2.0713 O.2     
  29 C29            1.5868     7.7675    -0.4370 C.3     
  30 C30           -1.5285    -0.3227     0.5461 C.3     
  31 C31            3.1484    -0.4659     1.9922 C.3     
  32 H32           -0.7384     2.0536    -0.5676 H       
  33 H33           -0.3674     2.0486     1.1737 H       
  34 H34            0.1670    -0.2350    -0.7808 H       
  35 H35            1.3796    -2.1814     2.1236 H       
  36 H36           -0.2759    -2.1393     1.4710 H       
  37 H37            2.2469    -2.0595    -0.2415 H       
  38 H38           -0.5254    -2.5124    -0.9698 H       
  39 H39            1.9521    -4.2230     1.0013 H       
  40 H40            0.3309    -4.3755     0.2823 H       
  41 H41            2.9200    -5.9098    -3.0286 H       
  42 H42            1.2215    -6.1755     0.8838 H       
  43 H43            1.4778    -8.6223     0.8307 H       
  44 H44            2.5047    -0.3066    -0.0579 H       
  45 H45            1.9703     1.9771     1.8965 H       
  46 H46            3.2582     1.9313     0.6682 H       
  47 H47           -0.1215     3.6460    -1.7056 H       
  48 H48            0.0032     6.0996    -1.8504 H       
  49 H49            3.0077     6.1355     1.1771 H       
  50 H50            2.8870     3.6824     1.3340 H       
  51 H51            1.9768   -10.5893    -0.5529 H       
  52 H52            5.0537    -9.4463    -2.4952 H       
  53 H53            4.4008   -10.3674    -3.8692 H       
  54 H54            2.5371    -8.8601    -4.0980 H       
  55 H55            3.9951    -7.8508    -3.9468 H       
  56 H56            0.8770     8.2096     0.2621 H       
  57 H57            2.5954     8.0973    -0.1879 H       
  58 H58            1.3418     8.0823    -1.4514 H       
  59 H59           -2.2262     0.0599    -0.1988 H       
  60 H60           -1.5628    -1.4122     0.5502 H       
  61 H61           -1.8059     0.0533     1.5308 H       
  62 H62            3.1955    -1.5528     1.9251 H       
  63 H63            4.1439    -0.0490     1.8391 H       
  64 H64            2.7817    -0.1782     2.9775 H       
@<TRIPOS>BOND
   1    1    2 1
   2    1   17 1
   3    1   32 1
   4    1   33 1
   5    2    3 1
   6    2   30 1
   7    2   34 1
   8    3    4 1
   9    3   15 1
  10    4    5 1
  11    4   35 1
  12    4   36 1
  13    5    6 1
  14    5    7 1
  15    5   37 1
  16    6   38 1
  17    7    8 1
  18    7   39 1
  19    7   40 1
  20    8    9 1
  21    9   10 ar
  22    9   11 ar
  23   10   14 ar
  24   10   41 1
  25   11   12 ar
  26   11   42 1
  27   12   13 ar
  28   12   43 1
  29   13   14 ar
  30   13   24 1
  31   14   27 1
  32   15   16 1
  33   15   31 1
  34   15   44 1
  35   16   17 1
  36   16   45 1
  37   16   46 1
  38   17   18 1
  39   18   19 ar
  40   18   23 ar
  41   19   20 ar
  42   19   47 1
  43   20   21 ar
  44   20   48 1
  45   21   22 ar
  46   21   29 1
  47   22   23 ar
  48   22   49 1
  49   23   50 1
  50   24   25 am
  51   24   51 1
  52   25   26 1
  53   25   28 2
  54   26   27 1
  55   26   52 1
  56   26   53 1
  57   27   54 1
  58   27   55 1
  59   29   56 1
  60   29   57 1
  61   29   58 1
  62   30   59 1
  63   30   60 1
  64   30   61 1
  65   31   62 1
  66   31   63 1
  67   31   64 1

#	End of record

