#	Name: ASD03730336
#	Creating user name:	WinNT
#	Creation time:	15. 06. 2019 20:44

#	Modifying user name:	WinNT
#	Modification time:	15. 06. 2019 20:44

#	Program:	/corina/corina34_cracker 3.40 0067  02.08.2006

@<TRIPOS>MOLECULE
ASD03730336
  58   63    0    0    0
SMALL
NO_CHARGES


@<TRIPOS>ATOM
   1 C1             1.5573    -1.2864    -2.4137 C.2     
   2 C2             0.7041    -1.1969    -1.2096 C.ar    
   3 C3             1.2056    -0.6325    -0.0354 C.ar    
   4 C4             0.4041    -0.5515     1.0843 C.ar    
   5 C5            -0.8942    -1.0286     1.0455 C.ar    
   6 C6            -1.3974    -1.5891    -0.1148 C.ar    
   7 C7            -0.6081    -1.6709    -1.2436 C.ar    
   8 O8             2.6651    -0.7862    -2.4121 O.2     
   9 N9             1.1089    -1.9275    -3.5111 N.am    
  10 C10            1.9544    -2.0163    -4.7043 C.3     
  11 C11            1.2140    -2.7890    -5.7977 C.3     
  12 C12            2.0969    -2.8817    -7.0437 C.3     
  13 C13            2.6196    -0.1133     0.0088 C.3     
  14 O14            0.0928    -1.7703     6.5327 O.3     
  15 C15            0.0950    -1.6641     7.9686 C.3     
  16 O16            1.4935    -1.6023     8.3051 O.3     
  17 C17            2.1096    -1.0652     7.2111 C.ar    
  18 C18            1.2482    -1.1698     6.1214 C.ar    
  19 C19            3.3557    -0.4852     7.0546 C.ar    
  20 C20            3.7588    -0.0048     5.8123 C.ar    
  21 C21            2.8928    -0.1223     4.7294 C.ar    
  22 C22            1.6474    -0.6946     4.8835 C.ar    
  23 O23            4.9220     0.6087     5.4504 O.3     
  24 C24            3.6136     0.4527     3.5395 C.3     
  25 C25            5.0688     0.5419     4.0188 C.3     
  26 N26            2.9248     0.3575     1.3621 N.am    
  27 C27            3.4778    -0.4129     2.3201 C.2     
  28 C28            3.0735     1.7932     3.1379 C.ar    
  29 C29            2.9244     2.9944     3.7945 C.ar    
  30 C30            2.3780     4.0812     3.1354 C.ar    
  31 C31            1.9815     3.9580     1.8161 C.ar    
  32 C32            2.1280     2.7567     1.1544 C.ar    
  33 C33            2.6774     1.6574     1.8099 C.ar    
  34 O34            3.8025    -1.5770     2.2171 O.2     
  35 H35            0.7909    -0.1151     1.9933 H       
  36 H36           -1.5174    -0.9635     1.9252 H       
  37 H37           -2.4115    -1.9596    -0.1385 H       
  38 H38           -1.0034    -2.1050    -2.1501 H       
  39 H39            0.2264    -2.3301    -3.5110 H       
  40 H40            2.1853    -1.0127    -5.0615 H       
  41 H41            2.8801    -2.5354    -4.4558 H       
  42 H42            0.9831    -3.7926    -5.4405 H       
  43 H43            0.2883    -2.2699    -6.0461 H       
  44 H44            2.3278    -1.8781    -7.4009 H       
  45 H45            3.0226    -3.4008    -6.7953 H       
  46 H46            1.5694    -3.4322    -7.8227 H       
  47 H47            3.3090    -0.9131    -0.2617 H       
  48 H48            2.7260     0.7118    -0.6955 H       
  49 H49           -0.4159    -0.7551     8.2861 H       
  50 H50           -0.3687    -2.5421     8.4182 H       
  51 H51            4.0201    -0.4047     7.9022 H       
  52 H52            0.9819    -0.7725     4.0364 H       
  53 H53            5.5478     1.4433     3.6364 H       
  54 H54            5.6274    -0.3477     3.7280 H       
  55 H55            3.2345     3.0882     4.8247 H       
  56 H56            2.2617     5.0237     3.6497 H       
  57 H57            1.5549     4.8064     1.3017 H       
  58 H58            1.8155     2.6681     0.1244 H       
@<TRIPOS>BOND
   1    1    2 1
   2    1    8 2
   3    1    9 am
   4    2    3 ar
   5    2    7 ar
   6    3    4 ar
   7    3   13 1
   8    4    5 ar
   9    4   35 1
  10    5    6 ar
  11    5   36 1
  12    6    7 ar
  13    6   37 1
  14    7   38 1
  15    9   10 1
  16    9   39 1
  17   10   11 1
  18   10   40 1
  19   10   41 1
  20   11   12 1
  21   11   42 1
  22   11   43 1
  23   12   44 1
  24   12   45 1
  25   12   46 1
  26   13   26 1
  27   13   47 1
  28   13   48 1
  29   14   15 1
  30   14   18 1
  31   15   16 1
  32   15   49 1
  33   15   50 1
  34   16   17 1
  35   17   18 ar
  36   17   19 ar
  37   18   22 ar
  38   19   20 ar
  39   19   51 1
  40   20   21 ar
  41   20   23 1
  42   21   22 ar
  43   21   24 1
  44   22   52 1
  45   23   25 1
  46   24   25 1
  47   24   27 1
  48   24   28 1
  49   25   53 1
  50   25   54 1
  51   26   27 am
  52   26   33 1
  53   27   34 2
  54   28   29 ar
  55   28   33 ar
  56   29   30 ar
  57   29   55 1
  58   30   31 ar
  59   30   56 1
  60   31   32 ar
  61   31   57 1
  62   32   33 ar
  63   32   58 1

#	End of record

