#	Name: ASD01151053
#	Creating user name:	WinNT
#	Creation time:	15. 06. 2019 19:05

#	Modifying user name:	WinNT
#	Modification time:	15. 06. 2019 19:05

#	Program:	/corina/corina34_cracker 3.40 0067  02.08.2006

@<TRIPOS>MOLECULE
ASD01151053
  55   57    0    0    0
SMALL
NO_CHARGES


@<TRIPOS>ATOM
   1 F1             8.7583     4.6740    -1.7215 F       
   2 C2             7.7437     5.5609    -1.6255 C.ar    
   3 C3             6.7156     5.3391    -0.7220 C.ar    
   4 C4             5.6777     6.2405    -0.6202 C.ar    
   5 C5             5.6633     7.3790    -1.4290 C.ar    
   6 C6             6.7017     7.5977    -2.3370 C.ar    
   7 C7             7.7373     6.6924    -2.4268 C.ar    
   8 C8             4.5536     8.3481    -1.3247 C.2     
   9 O9             4.7674     9.5356    -1.4748 O.2     
  10 N10            3.3040     7.9162    -1.0631 N.am    
  11 C11            2.2769     8.8403    -0.8369 C.ar    
  12 C12            1.5181     9.3087    -1.9003 C.ar    
  13 C13            0.5016    10.2221    -1.6829 C.ar    
  14 C14            0.2338    10.6741    -0.4083 C.ar    
  15 C15            0.9904    10.2104     0.6712 C.ar    
  16 C16            2.0132     9.2844     0.4532 C.ar    
  17 F17            2.7499     8.8305     1.4908 F       
  18 C18            0.7062    10.6933     2.0375 C.2     
  19 O19            1.3660    10.2882     2.9749 O.2     
  20 N20           -0.2846    11.5830     2.2453 N.am    
  21 C21           -0.4848    12.1216     3.5206 C.ar    
  22 C22           -0.6027    11.2814     4.6206 C.ar    
  23 I23           -0.4810     9.2048     4.3719 I       
  24 C24           -0.7998    11.8171     5.8789 C.ar    
  25 C25           -0.8802    13.1875     6.0436 C.ar    
  26 C26           -0.7632    14.0265     4.9504 C.ar    
  27 C27           -0.5603    13.4980     3.6907 C.ar    
  28 C28           -0.4324    14.4133     2.5004 C.3     
  29 F29           -0.5520    15.7427     2.9194 F       
  30 F30            0.8165    14.2245     1.8989 F       
  31 F31           -1.4431    14.1224     1.5778 F       
  32 C32           -1.0963    13.7682     7.4173 C.3     
  33 C33           -2.4920    14.3902     7.4943 C.3     
  34 F34           -3.4576    13.3900     7.3379 F       
  35 F35           -2.6589    15.0091     8.7378 F       
  36 F36           -2.6359    15.3403     6.4775 F       
  37 C37           -0.9735    12.6597     8.4647 C.3     
  38 F38            0.2596    12.0152     8.3192 F       
  39 F39           -1.0604    13.2164     9.7453 F       
  40 F40           -2.0073    11.7340     8.2875 F       
  41 F41           -0.1330    14.7522     7.6644 F       
  42 C42            3.0205     6.4797    -1.0155 C.3     
  43 H43            6.7277     4.4584    -0.0970 H       
  44 H44            4.8771     6.0665     0.0834 H       
  45 H45            6.6952     8.4763    -2.9650 H       
  46 H46            8.5409     6.8607    -3.1283 H       
  47 H47            1.7219     8.9592    -2.9017 H       
  48 H48           -0.0843    10.5827    -2.5154 H       
  49 H49           -0.5607    11.3870    -0.2441 H       
  50 H50           -0.8589    11.8498     1.5106 H       
  51 H51           -0.8916    11.1646     6.7347 H       
  52 H52           -0.8268    15.0965     5.0825 H       
  53 H53            3.2128     6.1045    -0.0103 H       
  54 H54            1.9759     6.3067    -1.2742 H       
  55 H55            3.6619     5.9590    -1.7265 H       
@<TRIPOS>BOND
   1    1    2 1
   2    2    3 ar
   3    2    7 ar
   4    3    4 ar
   5    3   43 1
   6    4    5 ar
   7    4   44 1
   8    5    6 ar
   9    5    8 1
  10    6    7 ar
  11    6   45 1
  12    7   46 1
  13    8    9 2
  14    8   10 am
  15   10   11 1
  16   10   42 1
  17   11   12 ar
  18   11   16 ar
  19   12   13 ar
  20   12   47 1
  21   13   14 ar
  22   13   48 1
  23   14   15 ar
  24   14   49 1
  25   15   16 ar
  26   15   18 1
  27   16   17 1
  28   18   19 2
  29   18   20 am
  30   20   21 1
  31   20   50 1
  32   21   22 ar
  33   21   27 ar
  34   22   23 1
  35   22   24 ar
  36   24   25 ar
  37   24   51 1
  38   25   26 ar
  39   25   32 1
  40   26   27 ar
  41   26   52 1
  42   27   28 1
  43   28   29 1
  44   28   30 1
  45   28   31 1
  46   32   33 1
  47   32   37 1
  48   32   41 1
  49   33   34 1
  50   33   35 1
  51   33   36 1
  52   37   38 1
  53   37   39 1
  54   37   40 1
  55   42   53 1
  56   42   54 1
  57   42   55 1

#	End of record

