#	Name: ASD08070194
#	Creating user name:	WinNT
#	Creation time:	15. 06. 2019 21:14

#	Modifying user name:	WinNT
#	Modification time:	15. 06. 2019 21:14

#	Program:	/corina/corina34_cracker 3.40 0067  02.08.2006

@<TRIPOS>MOLECULE
ASD08070194
  44   46    0    0    0
SMALL
NO_CHARGES


@<TRIPOS>ATOM
   1 C1            -0.0164     1.3587     0.0095 C.ar    
   2 C2             0.0021    -0.0041     0.0020 C.ar    
   3 C3             1.2001    -0.7069    -0.0132 C.ar    
   4 C4             2.4139    -0.0354    -0.0207 C.ar    
   5 C5             2.4213     1.3820    -0.0132 C.ar    
   6 C6             1.1896     2.0805     0.0019 C.ar    
   7 C7             3.6822    -0.7876    -0.0358 C.2     
   8 N8             4.2722    -1.1372     1.1244 N.am    
   9 C9             3.6228     2.1031    -0.0208 C.ar    
  10 O10            4.1956    -1.0925    -1.0951 O.2     
  11 C11            6.7027    -0.9081     0.9781 C.3     
  12 C12            5.5322    -1.8845     1.1094 C.3     
  13 C13            5.6655    -1.7097     3.5982 C.3     
  14 C14            5.6715    -2.6755     2.4116 C.3     
  15 C15            1.1811    -2.2137    -0.0210 C.3     
  16 C16            4.5009    -3.6520     2.5429 C.3     
  17 C17            6.6968     0.0578     2.1646 C.3     
  18 C18            6.8361    -0.7332     3.4669 C.3     
  19 C19            3.5924     3.4653    -0.0137 C.ar    
  20 C20            2.3820     4.1545     0.0012 C.ar    
  21 C21            1.1960     3.4863     0.0094 C.ar    
  22 H22           -0.9595     1.8849     0.0168 H       
  23 H23           -0.9314    -0.5472     0.0083 H       
  24 H24            3.8626    -0.8940     1.9694 H       
  25 H25            4.5685     1.5816    -0.0320 H       
  26 H26            7.6402    -1.4641     0.9669 H       
  27 H27            6.6035    -0.3445     0.0504 H       
  28 H28            5.5364    -2.5726     0.2641 H       
  29 H29            4.7281    -1.1536     3.6094 H       
  30 H30            5.7648    -2.2732     4.5259 H       
  31 H31            6.6090    -3.2316     2.4004 H       
  32 H32            1.1667    -2.5715    -1.0505 H       
  33 H33            2.0712    -2.5910     0.4823 H       
  34 H34            0.2915    -2.5686     0.4994 H       
  35 H35            3.5635    -3.0960     2.5541 H       
  36 H36            4.5052    -4.3401     1.6976 H       
  37 H37            4.6002    -4.2155     3.4707 H       
  38 H38            7.5307     0.7534     2.0711 H       
  39 H39            5.7593     0.6138     2.1758 H       
  40 H40            6.8319    -0.0451     4.3122 H       
  41 H41            7.7736    -1.2892     3.4557 H       
  42 H42            4.5200     4.0185    -0.0192 H       
  43 H43            2.3845     5.2345     0.0070 H       
  44 H44            0.2648     4.0333     0.0206 H       
@<TRIPOS>BOND
   1    1    2 ar
   2    1    6 ar
   3    1   22 1
   4    2    3 ar
   5    2   23 1
   6    3    4 ar
   7    3   15 1
   8    4    5 ar
   9    4    7 1
  10    5    6 ar
  11    5    9 ar
  12    6   21 ar
  13    7    8 am
  14    7   10 2
  15    8   12 1
  16    8   24 1
  17    9   19 ar
  18    9   25 1
  19   11   17 1
  20   11   12 1
  21   11   26 1
  22   11   27 1
  23   12   14 1
  24   12   28 1
  25   13   14 1
  26   13   18 1
  27   13   29 1
  28   13   30 1
  29   14   16 1
  30   14   31 1
  31   15   32 1
  32   15   33 1
  33   15   34 1
  34   16   35 1
  35   16   36 1
  36   16   37 1
  37   17   18 1
  38   17   38 1
  39   17   39 1
  40   18   40 1
  41   18   41 1
  42   19   20 ar
  43   19   42 1
  44   20   21 ar
  45   20   43 1
  46   21   44 1

#	End of record

