#	Name: ASD03430004
#	Creating user name:	WinNT
#	Creation time:	15. 06. 2019 20:40

#	Modifying user name:	WinNT
#	Modification time:	15. 06. 2019 20:40

#	Program:	/corina/corina34_cracker 3.40 0067  02.08.2006

@<TRIPOS>MOLECULE
ASD03430004
  48   53    0    0    0
SMALL
NO_CHARGES


@<TRIPOS>ATOM
   1 C1            -0.2332     1.4409     0.1356 C.ar    
   2 C2            -0.1476     0.0464     0.0631 C.ar    
   3 C3             1.0654    -0.5545    -0.0749 C.ar    
   4 C4             2.2430     0.2000    -0.1359 C.ar    
   5 C5             2.1726     1.5827    -0.0711 C.ar    
   6 C6             0.9417     2.2145     0.0640 C.ar    
   7 O7             3.3370    -0.6069    -0.2442 O.3     
   8 C8             1.4768    -1.9975    -0.2031 C.3     
   9 C9             2.9252    -1.9086    -0.7025 C.3     
  10 C10            0.5160    -3.8058     0.8581 C.ar    
  11 C11            1.3767    -2.7376     1.0975 C.ar    
  12 C12            0.6014    -2.7542    -1.1603 C.2     
  13 N13            0.0803    -3.7874    -0.4689 N.am    
  14 O14            0.4021    -2.4878    -2.3266 O.2     
  15 C15            1.9340    -2.5530     2.3431 C.ar    
  16 C16            1.6416    -3.4319     3.3706 C.ar    
  17 C17            0.7879    -4.4961     3.1442 C.ar    
  18 C18            0.2263    -4.6850     1.8988 C.ar    
  19 C19           -0.8364    -4.7758    -1.0425 C.3     
  20 C20           -2.2580    -4.3164    -0.8453 C.ar    
  21 C21           -2.5193    -3.1695    -0.1196 C.ar    
  22 C22           -3.8236    -2.7481     0.0614 C.ar    
  23 C23           -4.8661    -3.4735    -0.4838 C.ar    
  24 C24           -4.6047    -4.6202    -1.2105 C.ar    
  25 C25           -3.3006    -5.0391    -1.3951 C.ar    
  26 C26           -1.3382     2.3839     0.2745 C.2     
  27 N27           -0.8367     3.5857     0.2833 N.2     
  28 N28            0.5547     3.5270     0.1546 N.pl3   
  29 C29           -3.0157    -6.2891    -2.1872 C.3     
  30 F30           -4.2226    -6.8785    -2.5785 F       
  31 F31           -2.2672    -5.9611    -3.3227 F       
  32 F32           -2.2927    -7.1881    -1.3957 F       
  33 H33           -1.0443    -0.5532     0.1170 H       
  34 H34            3.0767     2.1710    -0.1253 H       
  35 H35            2.9633    -1.9655    -1.7903 H       
  36 H36            3.5382    -2.6891    -0.2517 H       
  37 H37            2.6003    -1.7212     2.5180 H       
  38 H38            2.0788    -3.2872     4.3475 H       
  39 H39            0.5597    -5.1823     3.9464 H       
  40 H40           -0.4403    -5.5178     1.7298 H       
  41 H41           -0.6339    -4.8837    -2.1081 H       
  42 H42           -0.6925    -5.7356    -0.5464 H       
  43 H43           -1.7046    -2.6027     0.3064 H       
  44 H44           -4.0277    -1.8523     0.6290 H       
  45 H45           -5.8850    -3.1446    -0.3418 H       
  46 H46           -5.4194    -5.1872    -1.6362 H       
  47 H47           -2.3849     2.1304     0.3551 H       
  48 H48            1.1506     4.2920     0.1337 H       
@<TRIPOS>BOND
   1    1    2 ar
   2    1    6 ar
   3    1   26 1
   4    2    3 ar
   5    2   33 1
   6    3    4 ar
   7    3    8 1
   8    4    5 ar
   9    4    7 1
  10    5    6 ar
  11    5   34 1
  12    6   28 1
  13    7    9 1
  14    8    9 1
  15    8   11 1
  16    8   12 1
  17    9   35 1
  18    9   36 1
  19   10   11 ar
  20   10   13 1
  21   10   18 ar
  22   11   15 ar
  23   12   13 am
  24   12   14 2
  25   13   19 1
  26   15   16 ar
  27   15   37 1
  28   16   17 ar
  29   16   38 1
  30   17   18 ar
  31   17   39 1
  32   18   40 1
  33   19   20 1
  34   19   41 1
  35   19   42 1
  36   20   21 ar
  37   20   25 ar
  38   21   22 ar
  39   21   43 1
  40   22   23 ar
  41   22   44 1
  42   23   24 ar
  43   23   45 1
  44   24   25 ar
  45   24   46 1
  46   25   29 1
  47   26   27 2
  48   26   47 1
  49   27   28 1
  50   28   48 1
  51   29   30 1
  52   29   31 1
  53   29   32 1

#	End of record

