#	Name: ASD02039371
#	Creating user name:	WinNT
#	Creation time:	15. 06. 2019 20:18

#	Modifying user name:	WinNT
#	Modification time:	15. 06. 2019 20:18

#	Program:	/corina/corina34_cracker 3.40 0067  02.08.2006

@<TRIPOS>MOLECULE
ASD02039371
  47   49    0    0    0
SMALL
NO_CHARGES


@<TRIPOS>ATOM
   1 C1            -0.0872     1.3452     0.4748 C.ar    
   2 C2             0.1986    -0.0122     0.5138 C.ar    
   3 C3            -0.8397    -0.9219     0.5922 C.ar    
   4 C4            -2.4080     0.7722     0.6057 C.ar    
   5 C5            -1.4121     1.7431     0.5215 C.ar    
   6 C6            -3.8320     1.1819     0.6561 C.ar    
   7 C7             1.0204     2.3635     0.3898 C.3     
   8 N8             1.4063     2.5495    -1.0111 N.am    
   9 C9             0.6533     3.4745    -1.8617 C.3     
  10 C10            2.4541     1.8696    -1.5175 C.2     
  11 C11            3.1420     0.8580    -0.6965 C.2     
  12 C12            4.1357     0.0213    -1.1130 C.2     
  13 N13            2.9065     0.5927     0.6139 N.2     
  14 C14            3.7034    -0.3614     1.0000 C.2     
  15 N15            4.4805    -0.7399    -0.0479 N.pl3   
  16 O16            2.8318     2.0912    -2.6521 O.2     
  17 C17            5.5071    -1.7849    -0.0291 C.3     
  18 C18           -4.1687     2.5327     0.7327 C.ar    
  19 C19            1.5552     4.6410    -2.2701 C.3     
  20 C20            0.1723     2.7390    -3.1142 C.3     
  21 N21           -2.0928    -0.5168     0.6299 N.ar    
  22 C22           -4.8398     0.2170     0.6212 C.ar    
  23 C23           -6.1661     0.6040     0.6685 C.ar    
  24 C24           -6.4952     1.9461     0.7504 C.ar    
  25 C25           -5.4963     2.9096     0.7795 C.ar    
  26 F26           -7.7927     2.3198     0.7959 F       
  27 F27           -5.8235     4.2180     0.8599 F       
  28 F28           -4.5196    -1.0931     0.5409 F       
  29 H29            1.2223    -0.3548     0.4828 H       
  30 H30           -0.6205    -1.9790     0.6227 H       
  31 H31           -1.6698     2.7917     0.5023 H       
  32 H32            0.6742     3.3120     0.8003 H       
  33 H33            1.8806     2.0131     0.9602 H       
  34 H34           -0.2069     3.8557    -1.3114 H       
  35 H35            4.5648    -0.0253    -2.1030 H       
  36 H36            3.7425    -0.7821     1.9940 H       
  37 H37            5.0568    -2.7413    -0.2948 H       
  38 H38            6.2889    -1.5392    -0.7478 H       
  39 H39            5.9393    -1.8517     0.9693 H       
  40 H40           -3.3923     3.2830     0.7558 H       
  41 H41            2.3442     4.2771    -2.9283 H       
  42 H42            0.9633     5.3921    -2.7931 H       
  43 H43            2.0007     5.0847    -1.3797 H       
  44 H44           -0.3784     1.8450    -2.8216 H       
  45 H45           -0.4792     3.3940    -3.6925 H       
  46 H46            1.0320     2.4539    -3.7207 H       
  47 H47           -6.9467    -0.1419     0.6412 H       
@<TRIPOS>BOND
   1    1    2 ar
   2    1    7 1
   3    1    5 ar
   4    2    3 ar
   5    2   29 1
   6    3   21 ar
   7    3   30 1
   8    4    5 ar
   9    4    6 1
  10    4   21 ar
  11    5   31 1
  12    6   18 ar
  13    6   22 ar
  14    7    8 1
  15    7   32 1
  16    7   33 1
  17    8    9 1
  18    8   10 am
  19    9   20 1
  20    9   19 1
  21    9   34 1
  22   10   11 1
  23   10   16 2
  24   11   12 2
  25   11   13 1
  26   12   15 1
  27   12   35 1
  28   13   14 2
  29   14   15 1
  30   14   36 1
  31   15   17 1
  32   17   37 1
  33   17   38 1
  34   17   39 1
  35   18   25 ar
  36   18   40 1
  37   19   41 1
  38   19   42 1
  39   19   43 1
  40   20   44 1
  41   20   45 1
  42   20   46 1
  43   22   23 ar
  44   22   28 1
  45   23   24 ar
  46   23   47 1
  47   24   25 ar
  48   24   26 1
  49   25   27 1

#	End of record

