#	Name: ASD01410168
#	Creating user name:	WinNT
#	Creation time:	15. 06. 2019 19:16

#	Modifying user name:	WinNT
#	Modification time:	15. 06. 2019 19:16

#	Program:	/corina/corina34_cracker 3.40 0067  02.08.2006

@<TRIPOS>MOLECULE
ASD01410168
  48   51    0    0    0
SMALL
NO_CHARGES


@<TRIPOS>ATOM
   1 C1            -0.0357     1.5352    -0.1896 C.3     
   2 C2            -0.0289     0.0052    -0.1969 C.3     
   3 C3             0.8574    -0.4955    -1.3391 C.3     
   4 C4             2.2843     0.0200    -1.1410 C.3     
   5 C5             2.2775     1.5499    -1.1337 C.3     
   6 C6             1.3912     2.0506     0.0085 C.3     
   7 C7             1.7599     4.3269     3.5250 C.ar    
   8 C8             2.3268     3.8817     2.3297 C.ar    
   9 C9             3.3977     2.9871     2.3630 C.ar    
  10 C10            3.8889     2.5487     3.5753 C.ar    
  11 C11            3.3220     2.9936     4.7565 C.ar    
  12 C12            2.2600     3.8800     4.7305 C.ar    
  13 C13            0.9488     4.3949    -1.0375 C.ar    
  14 C14            1.1180     5.7289    -0.6012 C.ar    
  15 N15            0.7869     6.7310    -1.3955 N.ar    
  16 C16            0.2930     6.5196    -2.6085 C.ar    
  17 C17            0.1012     5.2241    -3.0994 C.ar    
  18 C18            0.4332     4.1506    -2.3174 C.ar    
  19 C19            1.3845     3.5575     0.0156 C.2     
  20 C20            1.7950     4.3553     1.0341 C.2     
  21 N21            1.6385     5.6739     0.6724 N.pl3   
  22 O22            1.9612     6.7923     1.4787 O.3     
  23 C23            3.2757     7.3077     1.2584 C.3     
  24 C24           -0.0621     7.6759    -3.4575 C.2     
  25 O25           -0.5152     7.4960    -4.5701 O.2     
  26 O26            0.1169     8.9296    -2.9976 O.3     
  27 H27           -0.4257     1.9013    -1.1394 H       
  28 H28           -0.6671     1.8918     0.6241 H       
  29 H29            0.3610    -0.3609     0.7528 H       
  30 H30           -1.0454    -0.3620    -0.3381 H       
  31 H31            0.8623    -1.5854    -1.3443 H       
  32 H32            0.4675    -0.1294    -2.2889 H       
  33 H33            2.6742    -0.3462    -0.1912 H       
  34 H34            2.9157    -0.3367    -1.9547 H       
  35 H35            3.2940     1.9171    -0.9926 H       
  36 H36            1.8875     1.9160    -2.0835 H       
  37 H37            1.7811     1.6845     0.9582 H       
  38 H38            0.9340     5.0225     3.5061 H       
  39 H39            3.8406     2.6385     1.4417 H       
  40 H40            4.7174     1.8565     3.6025 H       
  41 H41            3.7101     2.6471     5.7029 H       
  42 H42            1.8221     4.2234     5.6561 H       
  43 H43           -0.3021     5.0718    -4.0896 H       
  44 H44            0.2942     3.1410    -2.6749 H       
  45 H45            4.0129     6.5620     1.5560 H       
  46 H46            3.4019     7.5415     0.2012 H       
  47 H47            3.4151     8.2126     1.8498 H       
  48 H48           -0.1299     9.6536    -3.5892 H       
@<TRIPOS>BOND
   1    1    2 1
   2    1    6 1
   3    1   27 1
   4    1   28 1
   5    2    3 1
   6    2   29 1
   7    2   30 1
   8    3    4 1
   9    3   31 1
  10    3   32 1
  11    4    5 1
  12    4   33 1
  13    4   34 1
  14    5    6 1
  15    5   35 1
  16    5   36 1
  17    6   19 1
  18    6   37 1
  19    7    8 ar
  20    7   12 ar
  21    7   38 1
  22    8    9 ar
  23    8   20 1
  24    9   10 ar
  25    9   39 1
  26   10   11 ar
  27   10   40 1
  28   11   12 ar
  29   11   41 1
  30   12   42 1
  31   13   19 1
  32   13   14 ar
  33   13   18 ar
  34   14   15 ar
  35   14   21 1
  36   15   16 ar
  37   16   17 ar
  38   16   24 1
  39   17   18 ar
  40   17   43 1
  41   18   44 1
  42   19   20 2
  43   20   21 1
  44   21   22 1
  45   22   23 1
  46   23   45 1
  47   23   46 1
  48   23   47 1
  49   24   25 2
  50   24   26 1
  51   26   48 1

#	End of record

