#	Name: ASD03331573
#	Creating user name:	WinNT
#	Creation time:	15. 06. 2019 20:39

#	Modifying user name:	WinNT
#	Modification time:	15. 06. 2019 20:39

#	Program:	/corina/corina34_cracker 3.40 0067  02.08.2006

@<TRIPOS>MOLECULE
ASD03331573
  57   60    0    0    0
SMALL
NO_CHARGES


@<TRIPOS>ATOM
   1 C1            -0.0180     1.4750     0.0102 C.ar    
   2 C2             0.0021    -0.0041     0.0020 C.2     
   3 N3            -1.0252    -0.8156     0.3867 N.pl3   
   4 C4            -0.5962    -2.1013     0.2519 C.2     
   5 C5             0.6712    -2.0541    -0.2384 C.2     
   6 N6             1.0088    -0.7534    -0.3817 N.2     
   7 C7             1.5221    -3.2133    -0.5602 C.2     
   8 O8             1.1018    -4.3420    -0.3907 O.2     
   9 N9             2.7662    -3.0229    -1.0424 N.am    
  10 C10            3.6122    -4.1753    -1.3623 C.3     
  11 C11            5.0620    -3.7720    -1.2815 C.2     
  12 C12           -2.3553    -0.4019     0.8401 C.3     
  13 C13           -2.9346    -1.4790     1.7607 C.3     
  14 O14           -3.6266    -2.4601     0.9863 O.3     
  15 C15           -2.8168    -3.1616     0.0469 C.3     
  16 C16           -1.4019    -3.3212     0.6130 C.3     
  17 C17            3.2964    -4.6624    -2.7779 C.3     
  18 C18            3.5691    -3.5365    -3.7774 C.3     
  19 C19            4.1800    -5.8660    -3.1121 C.3     
  20 C20            1.8245    -5.0718    -2.8599 C.3     
  21 N21            6.0290    -4.4455    -0.7063 N.2     
  22 C22            1.1792     2.1911    -0.0045 C.ar    
  23 C23            1.1546     3.5722     0.0032 C.ar    
  24 C24           -0.0584     4.2459     0.0260 C.ar    
  25 C25           -1.2490     3.5376     0.0410 C.ar    
  26 C26           -1.2345     2.1584     0.0267 C.ar    
  27 F27           -0.0785     5.5967     0.0339 F       
  28 F28            2.3127     4.2679    -0.0109 F       
  29 O29            5.6089    -2.6625    -1.7874 O.3     
  30 N30            6.7976    -2.6437    -1.5470 N.2     
  31 C31            7.1391    -3.7070    -0.8827 C.2     
  32 C32            8.5247    -4.0500    -0.3993 C.3     
  33 H33            3.1014    -2.1227    -1.1775 H       
  34 H34            3.4180    -4.9774    -0.6503 H       
  35 H35           -2.2775     0.5389     1.3850 H       
  36 H36           -3.0090    -0.2704    -0.0221 H       
  37 H37           -2.1251    -1.9578     2.3119 H       
  38 H38           -3.6277    -1.0188     2.4650 H       
  39 H39           -3.2467    -4.1457    -0.1401 H       
  40 H40           -2.7738    -2.6003    -0.8865 H       
  41 H41           -0.9347    -4.2079     0.1845 H       
  42 H42           -1.4510    -3.4190     1.6974 H       
  43 H43            4.6177    -3.2448    -3.7189 H       
  44 H44            3.3441    -3.8835    -4.7859 H       
  45 H45            2.9396    -2.6790    -3.5393 H       
  46 H46            3.9857    -6.6681    -2.4001 H       
  47 H47            3.9550    -6.2130    -4.1206 H       
  48 H48            5.2286    -5.5743    -3.0537 H       
  49 H49            1.1951    -4.2143    -2.6219 H       
  50 H50            1.5996    -5.4188    -3.8685 H       
  51 H51            1.6303    -5.8739    -2.1479 H       
  52 H52            2.1233     1.6668    -0.0215 H       
  53 H53           -2.1904     4.0664     0.0591 H       
  54 H54           -2.1636     1.6079     0.0384 H       
  55 H55            8.6725    -3.6406     0.6000 H       
  56 H56            8.6411    -5.1333    -0.3690 H       
  57 H57            9.2625    -3.6241    -1.0792 H       
@<TRIPOS>BOND
   1    1    2 1
   2    1   22 ar
   3    1   26 ar
   4    2    3 1
   5    2    6 2
   6    3    4 1
   7    3   12 1
   8    4    5 2
   9    4   16 1
  10    5    6 1
  11    5    7 1
  12    7    8 2
  13    7    9 am
  14    9   10 1
  15    9   33 1
  16   10   11 1
  17   10   17 1
  18   10   34 1
  19   11   21 2
  20   11   29 1
  21   12   13 1
  22   12   35 1
  23   12   36 1
  24   13   14 1
  25   13   37 1
  26   13   38 1
  27   14   15 1
  28   15   16 1
  29   15   39 1
  30   15   40 1
  31   16   41 1
  32   16   42 1
  33   17   18 1
  34   17   19 1
  35   17   20 1
  36   18   43 1
  37   18   44 1
  38   18   45 1
  39   19   46 1
  40   19   47 1
  41   19   48 1
  42   20   49 1
  43   20   50 1
  44   20   51 1
  45   21   31 1
  46   22   23 ar
  47   22   52 1
  48   23   24 ar
  49   23   28 1
  50   24   25 ar
  51   24   27 1
  52   25   26 ar
  53   25   53 1
  54   26   54 1
  55   29   30 1
  56   30   31 2
  57   31   32 1
  58   32   55 1
  59   32   56 1
  60   32   57 1

#	End of record

