#	Name: ASD01815937
#	Creating user name:	WinNT
#	Creation time:	15. 06. 2019 19:34

#	Modifying user name:	WinNT
#	Modification time:	15. 06. 2019 19:34

#	Program:	/corina/corina34_cracker 3.40 0067  02.08.2006

@<TRIPOS>MOLECULE
ASD01815937
  53   58    0    0    0
SMALL
NO_CHARGES


@<TRIPOS>ATOM
   1 C1             0.1064     1.4783     0.3821 C.ar    
   2 C2             0.0862     0.0932     0.3734 C.ar    
   3 C3             1.2565    -0.6271     0.2344 C.ar    
   4 C4             2.4729     0.0371     0.1012 C.ar    
   5 C5             2.4904     1.4412     0.1100 C.ar    
   6 C6             1.3032     2.1568     0.2509 C.ar    
   7 N7             3.6499    -0.6795    -0.0376 N.pl3   
   8 C8             4.8508    -0.0941    -0.1691 C.2     
   9 C9             4.9914     1.2716    -0.1751 C.2     
  10 C10            3.7897     2.1249    -0.0325 C.2     
  11 C11            6.1082     2.2037    -0.2945 C.2     
  12 N12            5.5737     3.4420    -0.2251 N.am    
  13 N13            4.1876     3.3642    -0.0685 N.2     
  14 C14            6.3021     4.6297    -0.2983 C.ar    
  15 O15            7.2873     1.9210    -0.4296 O.2     
  16 C16            3.5814    -2.1429    -0.0404 C.3     
  17 C17            3.4356    -2.6362    -1.4569 C.ar    
  18 C18            4.5554    -2.7853    -2.2543 C.ar    
  19 C19            4.4250    -3.2368    -3.5531 C.ar    
  20 C20            3.1679    -3.5414    -4.0577 C.ar    
  21 C21            2.0455    -3.3910    -3.2545 C.ar    
  22 C22            2.1828    -2.9441    -1.9549 C.ar    
  23 N23            3.0322    -3.9993    -5.3756 N.pl3   
  24 C24            1.8727    -4.3297    -5.9880 C.2     
  25 F25            1.3219     3.5076     0.2595 F       
  26 F26            1.2209    -1.9776     0.2281 F       
  27 C27            2.1700    -4.7219    -7.2485 C.2     
  28 C28            3.5563    -4.6286    -7.4130 C.2     
  29 N29            4.0732    -4.1900    -6.2935 N.2     
  30 N30            7.6167     4.5847    -0.4469 N.ar    
  31 C31            8.3427     5.6836    -0.5209 C.ar    
  32 C32            7.7515     6.9293    -0.4455 C.ar    
  33 C33            6.3748     7.0200    -0.2896 C.ar    
  34 C34            5.6398     5.8498    -0.2204 C.ar    
  35 C35            4.1430     5.8969    -0.0520 C.3     
  36 F36            3.7224     7.2297     0.0101 F       
  37 F37            3.5313     5.2651    -1.1400 F       
  38 F38            3.7858     5.2395     1.1301 F       
  39 H39           -0.8163     2.0295     0.4874 H       
  40 H40           -0.8538    -0.4285     0.4766 H       
  41 H41            5.7294    -0.7136    -0.2726 H       
  42 H42            4.4943    -2.5503     0.3940 H       
  43 H43            2.7229    -2.4676     0.5475 H       
  44 H44            5.5330    -2.5482    -1.8612 H       
  45 H45            5.2999    -3.3524    -4.1756 H       
  46 H46            1.0663    -3.6268    -3.6444 H       
  47 H47            1.3101    -2.8270    -1.3296 H       
  48 H48            0.8865    -4.2885    -5.5495 H       
  49 H49            1.4621    -5.0492    -7.9956 H       
  50 H50            4.1050    -4.8722    -8.3108 H       
  51 H51            9.4132     5.6080    -0.6418 H       
  52 H52            8.3538     7.8237    -0.5067 H       
  53 H53            5.8883     7.9822    -0.2276 H       
@<TRIPOS>BOND
   1    1    2 ar
   2    1    6 ar
   3    1   39 1
   4    2    3 ar
   5    2   40 1
   6    3    4 ar
   7    3   26 1
   8    4    5 ar
   9    4    7 1
  10    5    6 ar
  11    5   10 1
  12    6   25 1
  13    7    8 1
  14    7   16 1
  15    8    9 2
  16    8   41 1
  17    9   10 1
  18    9   11 1
  19   10   13 2
  20   11   12 am
  21   11   15 2
  22   12   13 1
  23   12   14 1
  24   14   30 ar
  25   14   34 ar
  26   16   17 1
  27   16   42 1
  28   16   43 1
  29   17   18 ar
  30   17   22 ar
  31   18   19 ar
  32   18   44 1
  33   19   20 ar
  34   19   45 1
  35   20   21 ar
  36   20   23 1
  37   21   22 ar
  38   21   46 1
  39   22   47 1
  40   23   24 1
  41   23   29 1
  42   24   27 2
  43   24   48 1
  44   27   28 1
  45   27   49 1
  46   28   29 2
  47   28   50 1
  48   30   31 ar
  49   31   32 ar
  50   31   51 1
  51   32   33 ar
  52   32   52 1
  53   33   34 ar
  54   33   53 1
  55   34   35 1
  56   35   36 1
  57   35   37 1
  58   35   38 1

#	End of record

