#	Name: ASD01918301
#	Creating user name:	WinNT
#	Creation time:	15. 06. 2019 20:11

#	Modifying user name:	WinNT
#	Modification time:	15. 06. 2019 20:11

#	Program:	/corina/corina34_cracker 3.40 0067  02.08.2006

@<TRIPOS>MOLECULE
ASD01918301
  45   48    0    0    0
SMALL
NO_CHARGES


@<TRIPOS>ATOM
   1 C1            -1.3424     1.6194     0.5319 C.3     
   2 C2            -1.2275     0.1195     0.4415 C.2     
   3 C3            -1.3941    -0.6274    -0.6748 C.2     
   4 N4            -1.2096    -1.9346    -0.3534 N.pl3   
   5 H5            -1.2705    -2.6827    -0.9679 H       
   6 C6            -0.9212    -2.0195     0.9882 C.2     
   7 C7            -0.9233    -0.7499     1.4962 C.2     
   8 C8            -0.6539    -3.2525     1.7401 C.2     
   9 N9            -0.6388    -4.4867     1.2582 N.2     
  10 C10           -0.3516    -5.2764     2.3035 C.2     
  11 N11           -0.2078    -4.5137     3.3474 N.2     
  12 O12           -0.3711    -3.3493     3.0502 O.3     
  13 C13           -0.2195    -6.7773     2.2740 C.3     
  14 C14            1.1890    -7.1633     2.6876 C.3     
  15 C15            1.4901    -8.6426     2.5304 C.3     
  16 C16            0.6609    -9.4750     3.5102 C.3     
  17 N17           -0.6443    -9.7651     2.8946 N.am    
  18 C18           -0.9322   -11.0620     2.4536 C.ar    
  19 C19           -1.0834   -12.0917     3.3730 C.ar    
  20 C20           -1.3674   -13.3704     2.9353 C.ar    
  21 C21           -1.5009   -13.6261     1.5819 C.ar    
  22 Cl22          -1.8579   -15.2346     1.0350 Cl      
  23 C23           -1.3507   -12.6018     0.6636 C.ar    
  24 C24           -1.0728   -11.3201     1.0964 C.ar    
  25 C25           -1.5545    -8.8004     2.7546 C.2     
  26 O26           -2.6290    -9.0516     2.2511 O.2     
  27 C27           -1.2510    -7.3927     3.2227 C.3     
  28 H28           -0.3691     2.0706     0.3389 H       
  29 H29           -2.0604     1.9740    -0.2076 H       
  30 H30           -1.6808     1.8984     1.5298 H       
  31 H31           -1.6341    -0.2477    -1.6570 H       
  32 H32           -0.7286    -0.4699     2.5209 H       
  33 H33           -0.4059    -7.1340     1.2610 H       
  34 H34            1.8969    -6.5978     2.0817 H       
  35 H35            1.3325    -6.8881     3.7325 H       
  36 H36            1.2555    -8.9497     1.5112 H       
  37 H37            2.5494    -8.8149     2.7209 H       
  38 H38            1.1792   -10.4093     3.7261 H       
  39 H39            0.5134    -8.9140     4.4330 H       
  40 H40           -0.9787   -11.8928     4.4293 H       
  41 H41           -1.4851   -14.1716     3.6499 H       
  42 H42           -1.4554   -12.8040    -0.3921 H       
  43 H43           -0.9604   -10.5200     0.3797 H       
  44 H44           -0.8463    -7.4223     4.2343 H       
  45 H45           -2.1637    -6.7970     3.2076 H       
@<TRIPOS>BOND
   1    1    2 1
   2    1   28 1
   3    1   29 1
   4    1   30 1
   5    2    7 1
   6    2    3 2
   7    3    4 1
   8    3   31 1
   9    4    5 1
  10    4    6 1
  11    6    7 2
  12    6    8 1
  13    7   32 1
  14    8   12 1
  15    8    9 2
  16    9   10 1
  17   10   11 2
  18   10   13 1
  19   11   12 1
  20   13   27 1
  21   13   14 1
  22   13   33 1
  23   14   15 1
  24   14   34 1
  25   14   35 1
  26   15   16 1
  27   15   36 1
  28   15   37 1
  29   16   17 1
  30   16   38 1
  31   16   39 1
  32   17   18 1
  33   17   25 am
  34   18   24 ar
  35   18   19 ar
  36   19   20 ar
  37   19   40 1
  38   20   21 ar
  39   20   41 1
  40   21   22 1
  41   21   23 ar
  42   23   24 ar
  43   23   42 1
  44   24   43 1
  45   25   26 2
  46   25   27 1
  47   27   44 1
  48   27   45 1

#	End of record

