#	Name: ASD01209138
#	Creating user name:	WinNT
#	Creation time:	15. 06. 2019 19:11

#	Modifying user name:	WinNT
#	Modification time:	15. 06. 2019 19:11

#	Program:	/corina/corina34_cracker 3.40 0067  02.08.2006

@<TRIPOS>MOLECULE
ASD01209138
  73   76    0    0    0
SMALL
NO_CHARGES


@<TRIPOS>ATOM
   1 C1             0.1848     1.1037     0.0460 C.ar    
   2 C2            -0.0373    -0.2735     0.0950 C.ar    
   3 C3            -1.3318    -0.7676     0.1377 C.ar    
   4 C4            -2.4100     0.1027     0.1317 C.ar    
   5 C5            -2.1963     1.4818     0.0824 C.ar    
   6 C6            -0.8965     1.9825     0.0456 C.ar    
   7 C7             1.5661     1.6296     0.0009 C.2     
   8 N8             2.5531     0.8861    -0.5372 N.am    
   9 O9            -1.5439    -2.1091     0.1853 O.3     
  10 C10           -1.1769    -2.7735     1.3125 C.ar    
  11 C11           -1.2547    -4.1580     1.3596 C.ar    
  12 C12           -3.3472     2.4094     0.0751 C.2     
  13 N13           -4.6040     1.9243     0.1159 N.am    
  14 O14           -3.1602     3.6098     0.0322 O.2     
  15 C15           -5.6854     2.7959     0.1090 C.2     
  16 P16           -9.9418     2.9642    -1.5363 P.3     
  17 O17           -9.5805     4.1710    -2.3131 O.2     
  18 C18           -0.8811    -4.8309     2.5067 C.ar    
  19 C19           -0.4303    -4.1259     3.6074 C.ar    
  20 C20           -0.3522    -2.7461     3.5632 C.ar    
  21 C21           -0.7183    -2.0688     2.4163 C.ar    
  22 S22            0.0450    -4.9873     5.0692 S.o2    
  23 O23           -0.1545    -4.0435     6.1126 O.2     
  24 O24           -0.7010    -6.1958     5.0220 O.2     
  25 C25            1.8134    -5.3216     4.8429 C.3     
  26 C26           -9.3140     3.1277     0.1674 C.3     
  27 N27           -6.9301     2.4351     0.1456 N.2     
  28 S28           -5.5688     4.5008     0.0585 S.3     
  29 C29           -7.3254     4.6323     0.0850 C.2     
  30 C30           -7.8320     3.3987     0.1329 C.2     
  31 O31            1.8115     2.7325     0.4492 O.2     
  32 C32            3.9480     1.3144    -0.7167 C.3     
  33 C33            2.4141    -0.4937    -1.0374 C.3     
  34 C34            3.5608    -0.6601    -2.0657 C.3     
  35 C35            4.7019     0.1491    -1.3915 C.3     
  36 O36          -11.5436     2.8056    -1.5051 O.3     
  37 C37          -13.8166     2.6047    -2.3013 C.3     
  38 C38          -12.3444     2.7607    -2.6878 C.3     
  39 O39           -9.2873     1.6655    -2.2270 O.3     
  40 C40           -8.7367     0.0379    -3.9265 C.3     
  41 C41           -9.4992     1.3230    -3.5981 C.3     
  42 H42            0.8004    -0.9551     0.0991 H       
  43 H43           -3.4171    -0.2861     0.1648 H       
  44 H44           -0.7278     3.0485     0.0078 H       
  45 H45           -1.6075    -4.7091     0.5004 H       
  46 H46           -4.7532     0.9664     0.1502 H       
  47 H47           -0.9415    -5.9086     2.5439 H       
  48 H48           -0.0001    -2.1978     4.4245 H       
  49 H49           -0.6572    -0.9911     2.3823 H       
  50 H50            2.3502    -4.3793     4.7331 H       
  51 H51            2.1957    -5.8586     5.7110 H       
  52 H52            1.9570    -5.9279     3.9484 H       
  53 H53           -9.8230     3.9536     0.6644 H       
  54 H54           -9.5018     2.2036     0.7141 H       
  55 H55           -7.8930     5.5510     0.0689 H       
  56 H56            3.9854     2.1983    -1.3536 H       
  57 H57            4.3960     1.5341     0.2524 H       
  58 H58            2.5302    -1.2066    -0.2211 H       
  59 H59            1.4472    -0.6256    -1.5229 H       
  60 H60            3.8384    -1.7084    -2.1750 H       
  61 H61            3.2882    -0.2273    -3.0282 H       
  62 H62            5.4024     0.5233    -2.1380 H       
  63 H63            5.2175    -0.4579    -0.6473 H       
  64 H64          -14.4274     2.5704    -3.2034 H       
  65 H65          -13.9484     1.6809    -1.7379 H       
  66 H66          -14.1227     3.4516    -1.6872 H       
  67 H67          -12.2126     3.6844    -3.2511 H       
  68 H68          -12.0383     1.9138    -3.3019 H       
  69 H69           -8.8984    -0.2234    -4.9723 H       
  70 H70           -7.6721     0.1921    -3.7510 H       
  71 H71           -9.0964    -0.7707    -3.2902 H       
  72 H72          -10.5639     1.1687    -3.7736 H       
  73 H73           -9.1395     2.1316    -4.2343 H       
@<TRIPOS>BOND
   1    1    2 ar
   2    1    7 1
   3    1    6 ar
   4    2    3 ar
   5    2   42 1
   6    3    4 ar
   7    3    9 1
   8    4    5 ar
   9    4   43 1
  10    5    6 ar
  11    5   12 1
  12    6   44 1
  13    7    8 am
  14    7   31 2
  15    8   32 1
  16    8   33 1
  17    9   10 1
  18   10   11 ar
  19   10   21 ar
  20   11   18 ar
  21   11   45 1
  22   12   13 am
  23   12   14 2
  24   13   15 1
  25   13   46 1
  26   15   27 2
  27   15   28 1
  28   16   17 2
  29   16   36 1
  30   16   39 1
  31   16   26 1
  32   18   19 ar
  33   18   47 1
  34   19   20 ar
  35   19   22 1
  36   20   21 ar
  37   20   48 1
  38   21   49 1
  39   22   23 2
  40   22   24 2
  41   22   25 1
  42   25   50 1
  43   25   51 1
  44   25   52 1
  45   26   30 1
  46   26   53 1
  47   26   54 1
  48   27   30 1
  49   28   29 1
  50   29   30 2
  51   29   55 1
  52   32   35 1
  53   32   56 1
  54   32   57 1
  55   33   34 1
  56   33   58 1
  57   33   59 1
  58   34   35 1
  59   34   60 1
  60   34   61 1
  61   35   62 1
  62   35   63 1
  63   36   38 1
  64   37   38 1
  65   37   64 1
  66   37   65 1
  67   37   66 1
  68   38   67 1
  69   38   68 1
  70   39   41 1
  71   40   41 1
  72   40   69 1
  73   40   70 1
  74   40   71 1
  75   41   72 1
  76   41   73 1

#	End of record

