#	Name: ASD01900987
#	Creating user name:	WinNT
#	Creation time:	15. 06. 2019 19:52

#	Modifying user name:	WinNT
#	Modification time:	15. 06. 2019 19:52

#	Program:	/corina/corina34_cracker 3.40 0067  02.08.2006

@<TRIPOS>MOLECULE
ASD01900987
  55   59    0    0    0
SMALL
NO_CHARGES


@<TRIPOS>ATOM
   1 C1             0.0927     1.4923    -1.2769 C.ar    
   2 C2             0.0362     0.1148    -1.2684 C.ar    
   3 C3             1.0235    -0.6262    -0.6379 C.ar    
   4 C4             2.0752     0.0052    -0.0027 C.ar    
   5 C5             2.1449     1.3886     0.0009 C.ar    
   6 C6             1.1528     2.1440    -0.6471 C.ar    
   7 N7             3.1798     2.0597     0.6470 N.pl3   
   8 C8             3.5317     3.4032     0.1817 C.3     
   9 N9             2.3686     4.2094    -0.1813 N.am    
  10 C10            1.2478     3.6144    -0.6431 C.2     
  11 C11            2.4160     5.6028    -0.0497 C.ar    
  12 C12            2.9080     6.3824    -1.0882 C.ar    
  13 C13            2.9545     7.7562    -0.9576 C.ar    
  14 C14            2.5098     8.3577     0.2106 C.ar    
  15 C15            2.0181     7.5797     1.2486 C.ar    
  16 C16            1.9657     6.2060     1.1172 C.ar    
  17 O17            0.3222     4.2882    -1.0532 O.2     
  18 O18            2.5563     9.7106     0.3387 O.3     
  19 C19            4.5195     4.1295     1.1052 C.3     
  20 C20            2.0822    10.2626     1.5685 C.3     
  21 N21            5.1946     4.5725    -0.1354 N.3     
  22 C22            4.6446     3.4135    -0.8748 C.3     
  23 C23            6.6543     4.4698    -0.0060 C.3     
  24 C24            7.2947     4.6901    -1.3522 C.ar    
  25 C25            7.7144     3.6079    -2.1034 C.ar    
  26 C26            8.3018     3.8100    -3.3381 C.ar    
  27 C27            8.4693     5.0942    -3.8221 C.ar    
  28 C28            8.0490     6.1759    -3.0715 C.ar    
  29 C29            7.4574     5.9736    -1.8384 C.ar    
  30 C30            6.9944     7.1528    -1.0222 C.3     
  31 H31           -0.6779     2.0639    -1.7728 H       
  32 H32           -0.7838    -0.3908    -1.7564 H       
  33 H33            0.9699    -1.7049    -0.6431 H       
  34 H34            2.8398    -0.5774     0.4896 H       
  35 H35            3.6549     1.6484     1.3860 H       
  36 H36            3.2546     5.9142    -1.9976 H       
  37 H37            3.3375     8.3626    -1.7651 H       
  38 H38            1.6721     8.0487     2.1578 H       
  39 H39            1.5788     5.6007     1.9236 H       
  40 H40            4.0710     4.9426     1.6760 H       
  41 H41            5.1221     3.4594     1.7183 H       
  42 H42            1.0360     9.9909     1.7093 H       
  43 H43            2.6740     9.8697     2.3952 H       
  44 H44            2.1748    11.3482     1.5392 H       
  45 H45            5.2842     2.5313    -0.8480 H       
  46 H46            4.2958     3.6575    -1.8782 H       
  47 H47            7.0110     5.2253     0.6941 H       
  48 H48            6.9174     3.4788     0.3638 H       
  49 H49            7.5835     2.6048    -1.7254 H       
  50 H50            8.6303     2.9647    -3.9246 H       
  51 H51            8.9290     5.2521    -4.7866 H       
  52 H52            8.1802     7.1791    -3.4494 H       
  53 H53            7.8061     7.4897    -0.3775 H       
  54 H54            6.6999     7.9631    -1.6892 H       
  55 H55            6.1422     6.8586    -0.4097 H       
@<TRIPOS>BOND
   1    1    2 ar
   2    1    6 ar
   3    1   31 1
   4    2    3 ar
   5    2   32 1
   6    3    4 ar
   7    3   33 1
   8    4    5 ar
   9    4   34 1
  10    5    7 1
  11    5    6 ar
  12    6   10 1
  13    7    8 1
  14    7   35 1
  15    8    9 1
  16    8   19 1
  17    8   22 1
  18    9   10 am
  19    9   11 1
  20   10   17 2
  21   11   12 ar
  22   11   16 ar
  23   12   13 ar
  24   12   36 1
  25   13   14 ar
  26   13   37 1
  27   14   15 ar
  28   14   18 1
  29   15   16 ar
  30   15   38 1
  31   16   39 1
  32   18   20 1
  33   19   21 1
  34   19   40 1
  35   19   41 1
  36   20   42 1
  37   20   43 1
  38   20   44 1
  39   21   23 1
  40   21   22 1
  41   22   45 1
  42   22   46 1
  43   23   24 1
  44   23   47 1
  45   23   48 1
  46   24   25 ar
  47   24   29 ar
  48   25   26 ar
  49   25   49 1
  50   26   27 ar
  51   26   50 1
  52   27   28 ar
  53   27   51 1
  54   28   29 ar
  55   28   52 1
  56   29   30 1
  57   30   53 1
  58   30   54 1
  59   30   55 1

#	End of record

