#	Name: ASD01810967
#	Creating user name:	WinNT
#	Creation time:	15. 06. 2019 19:25

#	Modifying user name:	WinNT
#	Modification time:	15. 06. 2019 19:25

#	Program:	/corina/corina34_cracker 3.40 0067  02.08.2006

@<TRIPOS>MOLECULE
ASD01810967
  32   34    0    0    0
SMALL
NO_CHARGES


@<TRIPOS>ATOM
   1 N1             0.0796     1.4643     0.6334 N.am    
   2 N2             0.2175     0.1556     1.0941 N.2     
   3 C3             1.4231    -0.2990     0.8790 C.2     
   4 C4             2.1880     0.7784     0.2152 C.2     
   5 C5             1.2365     1.8954     0.0922 C.2     
   6 O6             1.4514     2.9892    -0.4002 O.2     
   7 C7             1.9300    -1.6446     1.2343 C.ar    
   8 C8             2.9574    -1.7825     2.1709 C.ar    
   9 C9             3.4248    -3.0414     2.4977 C.ar    
  10 C10            2.8776    -4.1617     1.8989 C.ar    
  11 C11            1.8601    -4.0303     0.9708 C.ar    
  12 C12            1.3801    -2.7795     0.6398 C.ar    
  13 F13            3.4927    -0.6883     2.7553 F       
  14 C14           -1.0959     2.2216     0.7159 C.ar    
  15 C15           -2.2819     1.7285     0.1816 C.ar    
  16 C16           -3.4400     2.4792     0.2657 C.ar    
  17 C17           -3.4190     3.7184     0.8796 C.ar    
  18 C18           -2.2413     4.2105     1.4108 C.ar    
  19 C19           -1.0815     3.4633     1.3360 C.ar    
  20 F20           -2.3020     0.5184    -0.4188 F       
  21 N21            3.4450     0.7463    -0.1789 N.2     
  22 N22            4.1114    -0.3566    -0.1199 N.pl3   
  23 H23            4.2190    -3.1505     3.2215 H       
  24 H24            3.2465    -5.1435     2.1568 H       
  25 H25            1.4376    -4.9094     0.5069 H       
  26 H26            0.5827    -2.6797    -0.0817 H       
  27 H27           -4.3616     2.0978    -0.1486 H       
  28 H28           -4.3247     4.3032     0.9438 H       
  29 H29           -2.2288     5.1789     1.8888 H       
  30 H30           -0.1634     3.8471     1.7557 H       
  31 H31            3.6525    -1.1914     0.0630 H       
  32 H32            5.0715    -0.3512    -0.2585 H       
@<TRIPOS>BOND
   1    1    2 1
   2    1    5 am
   3    1   14 1
   4    2    3 2
   5    3    4 1
   6    3    7 1
   7    4    5 1
   8    4   21 2
   9    5    6 2
  10    7    8 ar
  11    7   12 ar
  12    8    9 ar
  13    8   13 1
  14    9   10 ar
  15    9   23 1
  16   10   11 ar
  17   10   24 1
  18   11   12 ar
  19   11   25 1
  20   12   26 1
  21   14   15 ar
  22   14   19 ar
  23   15   16 ar
  24   15   20 1
  25   16   17 ar
  26   16   27 1
  27   17   18 ar
  28   17   28 1
  29   18   19 ar
  30   18   29 1
  31   19   30 1
  32   21   22 1
  33   22   31 1
  34   22   32 1

#	End of record

