#	Name: ASD01001256
#	Creating user name:	WinNT
#	Creation time:	15. 06. 2019 18:55

#	Modifying user name:	WinNT
#	Modification time:	15. 06. 2019 18:55

#	Program:	/corina/corina34_cracker 3.40 0067  02.08.2006

@<TRIPOS>MOLECULE
ASD01001256
  34   35    0    0    0
SMALL
NO_CHARGES


@<TRIPOS>ATOM
   1 C1             0.8211     1.3946    -1.1410 C.ar    
   2 C2             0.8414     0.0124    -1.1467 C.ar    
   3 C3             1.2118    -0.6782    -0.0079 C.ar    
   4 C4             1.5624     0.0135     1.1364 C.ar    
   5 C5             1.5430     1.3957     1.1419 C.ar    
   6 C6             1.1712     2.0862     0.0035 C.ar    
   7 C7             1.1505     3.5931     0.0093 C.3     
   8 S8             2.5870     4.2608    -0.8947 S.3     
   9 C9             1.6081     5.0870    -2.1189 C.2     
  10 N10            0.3684     4.8659    -1.8487 N.2     
  11 N11            0.0058     4.1001    -0.7627 N.am    
  12 C12            1.1188     4.1259     1.4432 C.3     
  13 C13           -1.2750     3.8406    -0.4384 C.2     
  14 C14           -2.3942     4.4898    -1.2111 C.3     
  15 O15           -1.5281     3.0839     0.4763 O.2     
  16 N16            2.0917     5.8399    -3.1804 N.am    
  17 C17            1.2326     6.4176    -4.0433 C.2     
  18 C18            1.7575     7.2348    -5.1956 C.3     
  19 O19            0.0371     6.2799    -3.8925 O.2     
  20 H20            0.5359     1.9341    -2.0320 H       
  21 H21            0.5674    -0.5280    -2.0408 H       
  22 H22            1.2270    -1.7580    -0.0122 H       
  23 H23            1.8512    -0.5260     2.0263 H       
  24 H24            1.8166     1.9361     2.0361 H       
  25 H25            2.0045     3.7830     1.9779 H       
  26 H26            1.1042     5.2156     1.4256 H       
  27 H27            0.2250     3.7586     1.9476 H       
  28 H28           -2.6699     3.8553    -2.0534 H       
  29 H29           -3.2570     4.6224    -0.5584 H       
  30 H30           -2.0652     5.4611    -1.5803 H       
  31 H31            3.0478     5.9500    -3.3010 H       
  32 H32            2.3855     6.6084    -5.8290 H       
  33 H33            0.9210     7.6188    -5.7795 H       
  34 H34            2.3456     8.0684    -4.8117 H       
@<TRIPOS>BOND
   1    1    2 ar
   2    1    6 ar
   3    1   20 1
   4    2    3 ar
   5    2   21 1
   6    3    4 ar
   7    3   22 1
   8    4    5 ar
   9    4   23 1
  10    5    6 ar
  11    5   24 1
  12    6    7 1
  13    7    8 1
  14    7   12 1
  15    7   11 1
  16    8    9 1
  17    9   10 2
  18    9   16 1
  19   10   11 1
  20   11   13 am
  21   12   25 1
  22   12   26 1
  23   12   27 1
  24   13   14 1
  25   13   15 2
  26   14   28 1
  27   14   29 1
  28   14   30 1
  29   16   17 am
  30   16   31 1
  31   17   18 1
  32   17   19 2
  33   18   32 1
  34   18   33 1
  35   18   34 1

#	End of record

