#	Name: ASD03330059
#	Creating user name:	WinNT
#	Creation time:	15. 06. 2019 20:36

#	Modifying user name:	WinNT
#	Modification time:	15. 06. 2019 20:36

#	Program:	/corina/corina34_cracker 3.40 0067  02.08.2006

@<TRIPOS>MOLECULE
ASD03330059
  68   72    0    0    0
SMALL
NO_CHARGES


@<TRIPOS>ATOM
   1 C1             0.3090     0.7260    -0.6758 C.2     
   2 C2            -0.2225    -0.3396    -0.0132 C.2     
   3 C3             1.5123     1.1755    -0.1731 C.2     
   4 C4             1.9710     0.4681     0.9151 C.2     
   5 S5             0.8325    -0.8115     1.3111 S.3     
   6 C6             3.2271     0.7419     1.6386 C.ar    
   7 C7             3.5492     2.0489     2.0139 C.ar    
   8 C8             4.0958    -0.3058     1.9558 C.ar    
   9 C9             5.2680    -0.0454     2.6317 C.ar    
  10 C10            5.5866     1.2561     2.9980 C.ar    
  11 C11            4.7235     2.2999     2.6895 C.ar    
  12 O12            6.7428     1.5080     3.6650 O.3     
  13 C13            2.2490     2.3225    -0.7555 C.ar    
  14 C14            1.7071     3.6052    -0.6951 C.ar    
  15 C15            3.4903     2.1227    -1.3611 C.ar    
  16 C16            4.1720     3.1950    -1.9014 C.ar    
  17 C17            3.6259     4.4659    -1.8428 C.ar    
  18 C18            2.3973     4.6697    -1.2385 C.ar    
  19 C19           -1.4876    -0.9950    -0.3540 C.2     
  20 O20           -2.4704    -0.3245    -0.6111 O.2     
  21 Cl21           4.1761     0.5296    -1.4345 Cl      
  22 Cl22           4.4881     5.8099    -2.5240 Cl      
  23 C23            7.0086     2.8687     4.0114 C.3     
  24 C24            8.3448     2.9547     4.7518 C.3     
  25 O25            9.4033     2.5754     3.8699 O.3     
  26 N26           -1.5632    -2.3403    -0.3829 N.am    
  27 C27           -2.7989    -3.0117    -0.8086 C.3     
  28 C28           -0.4096    -3.1634     0.0048 C.3     
  29 C29           -0.1046    -4.1493    -1.1274 C.3     
  30 C30           -1.3668    -4.9505    -1.4546 C.3     
  31 C31           -2.4621    -3.9996    -1.9299 C.3     
  32 C32           -1.0615    -5.9452    -2.5448 C.ar    
  33 C33           -1.6692    -5.8245    -3.7805 C.ar    
  34 C34           -1.3892    -6.7369    -4.7805 C.ar    
  35 C35           -0.5012    -7.7697    -4.5449 C.ar    
  36 C36            0.1072    -7.8899    -3.3095 C.ar    
  37 C37           -0.1695    -6.9750    -2.3109 C.ar    
  38 C38           -1.8298    -5.6835    -0.2219 C.2     
  39 N39           -3.0051    -6.3430    -0.2317 N.am    
  40 O40           -1.1448    -5.6798     0.7789 O.2     
  41 H41           -0.1717     1.1798    -1.5298 H       
  42 H42            2.8788     2.8611     1.7744 H       
  43 H43            3.8486    -1.3181     1.6720 H       
  44 H44            5.9399    -0.8545     2.8772 H       
  45 H45            4.9754     3.3103     2.9759 H       
  46 H46            0.7486     3.7658    -0.2243 H       
  47 H47            5.1329     3.0421    -2.3701 H       
  48 H48            1.9759     5.6632    -1.1960 H       
  49 H49            7.0561     3.4718     3.1047 H       
  50 H50            6.2120     3.2421     4.6549 H       
  51 H51            8.5056     3.9772     5.0937 H       
  52 H52            8.3286     2.2829     5.6100 H       
  53 H53           10.2816     2.6066     4.2733 H       
  54 H54           -3.2315    -3.5498     0.0348 H       
  55 H55           -3.5094    -2.2709    -1.1753 H       
  56 H56            0.4558    -2.5228     0.1745 H       
  57 H57           -0.6434    -3.7142     0.9158 H       
  58 H58            0.2168    -3.5994    -2.0119 H       
  59 H59            0.6872    -4.8297    -0.8139 H       
  60 H60           -3.3544    -4.5711    -2.1857 H       
  61 H61           -2.1149    -3.4543    -2.8075 H       
  62 H62           -2.3630    -5.0175    -3.9646 H       
  63 H63           -1.8646    -6.6430    -5.7457 H       
  64 H64           -0.2830    -8.4830    -5.3260 H       
  65 H65            0.8007    -8.6971    -3.1253 H       
  66 H66            0.3058    -7.0689    -1.3457 H       
  67 H67           -3.5189    -6.4063    -1.0520 H       
  68 H68           -3.3373    -6.7543     0.5815 H       
@<TRIPOS>BOND
   1    1    2 2
   2    1    3 1
   3    1   41 1
   4    2   19 1
   5    2    5 1
   6    3    4 2
   7    3   13 1
   8    4    5 1
   9    4    6 1
  10    6    7 ar
  11    6    8 ar
  12    7   11 ar
  13    7   42 1
  14    8    9 ar
  15    8   43 1
  16    9   10 ar
  17    9   44 1
  18   10   11 ar
  19   10   12 1
  20   11   45 1
  21   12   23 1
  22   13   14 ar
  23   13   15 ar
  24   14   18 ar
  25   14   46 1
  26   15   16 ar
  27   15   21 1
  28   16   17 ar
  29   16   47 1
  30   17   18 ar
  31   17   22 1
  32   18   48 1
  33   19   20 2
  34   19   26 am
  35   23   24 1
  36   23   49 1
  37   23   50 1
  38   24   25 1
  39   24   51 1
  40   24   52 1
  41   25   53 1
  42   26   27 1
  43   26   28 1
  44   27   31 1
  45   27   54 1
  46   27   55 1
  47   28   29 1
  48   28   56 1
  49   28   57 1
  50   29   30 1
  51   29   58 1
  52   29   59 1
  53   30   31 1
  54   30   32 1
  55   30   38 1
  56   31   60 1
  57   31   61 1
  58   32   33 ar
  59   32   37 ar
  60   33   34 ar
  61   33   62 1
  62   34   35 ar
  63   34   63 1
  64   35   36 ar
  65   35   64 1
  66   36   37 ar
  67   36   65 1
  68   37   66 1
  69   38   39 am
  70   38   40 2
  71   39   67 1
  72   39   68 1

#	End of record

