#	Name: ASD02030320
#	Creating user name:	WinNT
#	Creation time:	15. 06. 2019 20:15

#	Modifying user name:	WinNT
#	Modification time:	15. 06. 2019 20:15

#	Program:	/corina/corina34_cracker 3.40 0067  02.08.2006

@<TRIPOS>MOLECULE
ASD02030320
  57   61    0    0    0
SMALL
NO_CHARGES


@<TRIPOS>ATOM
   1 N1            -0.2098     2.1201    -0.7394 N.am    
   2 C2            -0.0499     0.6599    -0.6455 C.3     
   3 C3            -0.8245     0.1601     0.5797 C.3     
   4 N4            -2.1961     0.6840     0.5259 N.am    
   5 C5            -2.3942     2.1404     0.4480 C.3     
   6 C6            -1.5662     2.6742    -0.7167 C.3     
   7 C7             0.8647     2.9277    -0.8383 C.2     
   8 C8             2.2253     2.3691    -0.6894 C.2     
   9 N9             3.3532     3.0128    -0.8999 N.2     
  10 N10            2.5285     1.1144    -0.3089 N.2     
  11 C11            3.8334     1.0155    -0.2995 C.2     
  12 N12            4.3356     2.2109    -0.6713 N.pl3   
  13 C13            5.6957     2.5271    -0.7898 C.ar    
  14 O14            0.7149     4.1153    -1.0498 O.2     
  15 C15           -3.2524    -0.1528     0.5472 C.2     
  16 C16           -4.6254     0.3915     0.6172 C.ar    
  17 O17           -3.0764    -1.3549     0.5088 O.2     
  18 C18           -5.6750    -0.2734    -0.0168 C.ar    
  19 C19           -6.9586     0.2421     0.0534 C.ar    
  20 C20           -7.1980     1.4171     0.7527 C.ar    
  21 C21           -6.1583     2.0773     1.3817 C.ar    
  22 C22           -4.8769     1.5695     1.3229 C.ar    
  23 O23           -7.9841    -0.4025    -0.5629 O.3     
  24 C24            6.0816     3.8008    -1.1835 C.ar    
  25 C25            7.4253     4.1097    -1.2990 C.ar    
  26 C26            8.3833     3.1489    -1.0220 C.ar    
  27 C27            7.9997     1.8797    -0.6301 C.ar    
  28 C28            6.6599     1.5680    -0.5078 C.ar    
  29 F29            7.8028     5.3489    -1.6826 F       
  30 C30           -1.6130     4.1989    -0.8594 C.3     
  31 C31           -1.6802     3.9717    -2.3798 C.3     
  32 C32           -2.2804     2.5891    -2.0698 C.3     
  33 C33           -9.2816     0.1854    -0.4493 C.3     
  34 H34           -0.4462     0.1899    -1.5456 H       
  35 H35            1.0063     0.4139    -0.5359 H       
  36 H36           -0.8500    -0.9295     0.5754 H       
  37 H37           -0.3355     0.5112     1.4884 H       
  38 H38           -3.4490     2.3596     0.2823 H       
  39 H39           -2.0625     2.6068     1.3756 H       
  40 H40            4.4047     0.1369    -0.0385 H       
  41 H41           -5.4873    -1.1871    -0.5612 H       
  42 H42           -8.1997     1.8173     0.8053 H       
  43 H43           -6.3508     2.9913     1.9240 H       
  44 H44           -4.0674     2.0874     1.8156 H       
  45 H45            5.3340     4.5496    -1.3998 H       
  46 H46            9.4319     3.3913    -1.1125 H       
  47 H47            8.7490     1.1321    -0.4153 H       
  48 H48            6.3618     0.5762    -0.2016 H       
  49 H49           -2.5147     4.6492    -0.4444 H       
  50 H50           -0.7003     4.6967    -0.5318 H       
  51 H51           -2.3707     4.6424    -2.8911 H       
  52 H52           -0.7017     3.9254    -2.8578 H       
  53 H53           -1.9034     1.7946    -2.7138 H       
  54 H54           -3.3675     2.5922    -1.9912 H       
  55 H55           -9.5628     0.2449     0.6021 H       
  56 H56           -9.2654     1.1873    -0.8784 H       
  57 H57          -10.0064    -0.4276    -0.9851 H       
@<TRIPOS>BOND
   1    1    2 1
   2    1    7 am
   3    1    6 1
   4    2    3 1
   5    2   34 1
   6    2   35 1
   7    3    4 1
   8    3   36 1
   9    3   37 1
  10    4    5 1
  11    4   15 am
  12    5    6 1
  13    5   38 1
  14    5   39 1
  15    6   30 1
  16    6   32 1
  17    7    8 1
  18    7   14 2
  19    8    9 2
  20    8   10 1
  21    9   12 1
  22   10   11 2
  23   11   12 1
  24   11   40 1
  25   12   13 1
  26   13   24 ar
  27   13   28 ar
  28   15   16 1
  29   15   17 2
  30   16   18 ar
  31   16   22 ar
  32   18   19 ar
  33   18   41 1
  34   19   20 ar
  35   19   23 1
  36   20   21 ar
  37   20   42 1
  38   21   22 ar
  39   21   43 1
  40   22   44 1
  41   23   33 1
  42   24   25 ar
  43   24   45 1
  44   25   26 ar
  45   25   29 1
  46   26   27 ar
  47   26   46 1
  48   27   28 ar
  49   27   47 1
  50   28   48 1
  51   30   31 1
  52   30   49 1
  53   30   50 1
  54   31   32 1
  55   31   51 1
  56   31   52 1
  57   32   53 1
  58   32   54 1
  59   33   55 1
  60   33   56 1
  61   33   57 1

#	End of record

