#	Name: ASD01140535
#	Creating user name:	WinNT
#	Creation time:	15. 06. 2019 19:01

#	Modifying user name:	WinNT
#	Modification time:	15. 06. 2019 19:01

#	Program:	/corina/corina34_cracker 3.40 0067  02.08.2006

@<TRIPOS>MOLECULE
ASD01140535
  59   62    0    0    0
SMALL
NO_CHARGES


@<TRIPOS>ATOM
   1 C1             0.2990     1.5532    -0.5255 C.3     
   2 C2             0.3820     0.0298    -0.6388 C.3     
   3 C3             1.1761    -0.3458    -1.8915 C.3     
   4 C4             2.5880     0.2353    -1.7926 C.3     
   5 C5             2.5051     1.7585    -1.6801 C.3     
   6 C6             1.7104     2.1367    -0.4283 C.3     
   7 C7             1.6244     3.6599    -0.3229 C.3     
   8 C8             3.9159     2.3422    -1.5854 C.3     
   9 C9             3.8323     3.8659    -1.4755 C.3     
  10 C10            3.0423     4.2432    -0.2215 C.3     
  11 C11            0.7348     5.5801     1.0632 C.3     
  12 C12            0.7706     4.0535     0.8777 C.3     
  13 C13            2.1684     6.0498     1.2150 C.3     
  14 C14            2.3776     7.5494     1.4003 C.3     
  15 C15            2.9004     5.7506    -0.1214 C.3     
  16 C16            4.2044     6.5358     0.0564 C.3     
  17 C17            3.7239     7.8644     0.7017 C.3     
  18 C18            2.4111     1.5753     0.8105 C.3     
  19 C19            2.8442     5.2881     2.3569 C.3     
  20 C20            1.2583    -1.8693    -2.0055 C.3     
  21 H21            0.6777     0.0583    -2.7726 H       
  22 H22            3.5419     3.8456     0.6619 H       
  23 H23            2.0062     2.1607    -2.5618 H       
  24 H24            1.1474     4.0484    -1.2227 H       
  25 H25            2.3258     6.1338    -0.9646 H       
  26 C26            1.2579     8.3175     0.7468 C.2     
  27 O27            1.3491     8.6505    -0.4104 O.2     
  28 C28            0.0243     8.6701     1.5373 C.3     
  29 Cl29          -1.1228     9.5816     0.4865 Cl      
  30 H30           -0.2007     1.9562    -1.4063 H       
  31 H31           -0.2667     1.8207     0.3670 H       
  32 H32            0.8810    -0.3735     0.2423 H       
  33 H33           -0.6238    -0.3846    -0.7084 H       
  34 H34            3.0859    -0.1677    -0.9106 H       
  35 H35            3.1547    -0.0330    -2.6842 H       
  36 H36            4.4164     1.9413    -0.7040 H       
  37 H37            4.4811     2.0729    -2.4777 H       
  38 H38            4.8379     4.2814    -1.4102 H       
  39 H39            3.3298     4.2668    -2.3558 H       
  40 H40            0.2813     6.0492     0.1901 H       
  41 H41            0.1655     5.8316     1.9581 H       
  42 H42           -0.2454     3.6884     0.7279 H       
  43 H43            1.1847     3.5946     1.7755 H       
  44 H44            2.4360     7.7943     2.4608 H       
  45 H45            4.8853     6.0071     0.7234 H       
  46 H46            4.6760     6.7239    -0.9081 H       
  47 H47            3.5776     8.6226    -0.0676 H       
  48 H48            4.4535     8.2099     1.4341 H       
  49 H49            2.4716     0.4897     0.7331 H       
  50 H50            3.4163     1.9912     0.8792 H       
  51 H51            1.8447     1.8449     1.7019 H       
  52 H52            2.7610     4.2161     2.1778 H       
  53 H53            3.8966     5.5674     2.4073 H       
  54 H54            2.3564     5.5380     3.2991 H       
  55 H55            0.2523    -2.2833    -2.0754 H       
  56 H56            1.8241    -2.1369    -2.8980 H       
  57 H57            1.7570    -2.2733    -1.1245 H       
  58 H58           -0.4542     7.7567     1.8907 H       
  59 H59            0.3039     9.2875     2.3910 H       
@<TRIPOS>BOND
   1    1    2 1
   2    1    6 1
   3    1   30 1
   4    1   31 1
   5    2    3 1
   6    2   32 1
   7    2   33 1
   8    3    4 1
   9    3   20 1
  10    3   21 1
  11    4    5 1
  12    4   34 1
  13    4   35 1
  14    5    6 1
  15    5    8 1
  16    5   23 1
  17    6    7 1
  18    6   18 1
  19    7   10 1
  20    7   24 1
  21    7   12 1
  22    8    9 1
  23    8   36 1
  24    8   37 1
  25    9   10 1
  26    9   38 1
  27    9   39 1
  28   10   15 1
  29   10   22 1
  30   11   12 1
  31   11   13 1
  32   11   40 1
  33   11   41 1
  34   12   42 1
  35   12   43 1
  36   13   15 1
  37   13   19 1
  38   13   14 1
  39   14   17 1
  40   14   26 1
  41   14   44 1
  42   15   16 1
  43   15   25 1
  44   16   17 1
  45   16   45 1
  46   16   46 1
  47   17   47 1
  48   17   48 1
  49   18   49 1
  50   18   50 1
  51   18   51 1
  52   19   52 1
  53   19   53 1
  54   19   54 1
  55   20   55 1
  56   20   56 1
  57   20   57 1
  58   26   27 2
  59   26   28 1
  60   28   29 1
  61   28   58 1
  62   28   59 1

#	End of record

