#	Name: ASD03910070
#	Creating user name:	WinNT
#	Creation time:	15. 06. 2019 20:47

#	Modifying user name:	WinNT
#	Modification time:	15. 06. 2019 20:47

#	Program:	/corina/corina34_cracker 3.40 0067  02.08.2006

@<TRIPOS>MOLECULE
ASD03910070
  89   92    0    0    0
SMALL
NO_CHARGES


@<TRIPOS>ATOM
   1 C1             0.0385    16.2513    -5.8367 C.ar    
   2 C2             1.1121    17.1002    -6.0340 C.ar    
   3 C3             2.3839    16.7108    -5.6558 C.ar    
   4 C4             2.5857    15.4718    -5.0799 C.ar    
   5 C5             1.5096    14.6169    -4.8804 C.ar    
   6 C6             0.2327    15.0134    -5.2557 C.ar    
   7 N7             1.7107    13.3610    -4.2973 N.am    
   8 C8             0.7637    12.8291    -3.4993 C.2     
   9 O9            -0.2228    13.4749    -3.2154 O.2     
  10 C10           -0.2573    11.0792    -2.1024 C.ar    
  11 C11           -1.3653    10.4790    -2.6714 C.ar    
  12 C12           -2.4533    10.1495    -1.8865 C.ar    
  13 C13           -2.4336    10.4214    -0.5262 C.ar    
  14 C14           -1.3206    11.0237     0.0423 C.ar    
  15 C15           -0.2352    11.3512    -0.7469 C.ar    
  16 O16           -3.5028    10.0986     0.2480 O.3     
  17 C17           -3.4005    10.3797     1.6454 C.3     
  18 C18           -2.2781     9.5776     2.2520 C.2     
  19 C19           -1.3458    16.6797    -6.2504 C.3     
  20 C20            3.5510    17.6392    -5.8726 C.3     
  21 O21           -1.5852    10.0645     3.1201 O.2     
  22 N22           -2.0445     8.3192     1.8298 N.am    
  23 C23            0.9307    11.4319    -2.9599 C.3     
  24 C24           -0.8928     7.5753     2.3461 C.3     
  25 C25            0.3445     7.9718     1.5826 C.2     
  26 O26            0.2718     8.7916     0.6980 O.2     
  27 O27            1.5274     7.4142     1.8853 O.3     
  28 C28           -1.1375     6.0745     2.1769 C.3     
  29 C29           -3.1523    11.8825     1.8639 C.3     
  30 C30           -4.3410    12.4092     2.6942 C.3     
  31 C31           -4.8818    11.1536     3.4223 C.3     
  32 C32           -4.7309    10.0445     2.3507 C.3     
  33 C33           -2.3415     5.6555     3.0229 C.3     
  34 C34           -2.6612     4.1825     2.7606 C.3     
  35 C35           -3.8652     3.7635     3.6066 C.3     
  36 N36           -4.1714     2.3530     3.3554 N.am    
  37 C37           -5.2002     1.7625     3.9952 C.2     
  38 O38           -5.4816     0.4662     3.7644 O.3     
  39 O39           -5.8738     2.4000     4.7803 O.2     
  40 C40           -6.6036    -0.1038     4.4885 C.3     
  41 C41           -6.7656    -1.5521     4.1046 C.ar    
  42 C42           -6.1044    -2.5343     4.8179 C.ar    
  43 C43           -6.2529    -3.8628     4.4657 C.ar    
  44 C44           -7.0632    -4.2090     3.4006 C.ar    
  45 C45           -7.7252    -3.2268     2.6879 C.ar    
  46 C46           -7.5800    -1.8987     3.0428 C.ar    
  47 H47            0.9569    18.0694    -6.4847 H       
  48 H48            3.5793    15.1680    -4.7854 H       
  49 H49           -0.6062    14.3510    -5.1016 H       
  50 H50            2.5317    12.8731    -4.4673 H       
  51 H51           -1.3803    10.2678    -3.7304 H       
  52 H52           -3.3187     9.6810    -2.3315 H       
  53 H53           -1.3030    11.2367     1.1010 H       
  54 H54            0.6315    11.8202    -0.3048 H       
  55 H55           -1.5278    16.3748    -7.2809 H       
  56 H56           -2.0817    16.2106    -5.5973 H       
  57 H57           -1.4293    17.7637    -6.1721 H       
  58 H58            3.6806    18.2713    -4.9941 H       
  59 H59            4.4557    17.0535    -6.0355 H       
  60 H60            3.3608    18.2643    -6.7451 H       
  61 H61           -2.6388     7.9060     1.1842 H       
  62 H62            1.0018    10.7282    -3.7893 H       
  63 H63            1.8396    11.3800    -2.3605 H       
  64 H64           -0.7565     7.8043     3.4030 H       
  65 H65            2.2928     7.7002     1.3680 H       
  66 H66           -1.3364     5.8548     1.1279 H       
  67 H67           -0.2552     5.5235     2.5025 H       
  68 H68           -2.2206    12.0316     2.4095 H       
  69 H69           -3.1100    12.3974     0.9041 H       
  70 H70           -4.0025    13.1526     3.4160 H       
  71 H71           -5.1055    12.8305     2.0413 H       
  72 H72           -4.2776    10.9261     4.3005 H       
  73 H73           -5.9285    11.2866     3.6960 H       
  74 H74           -5.5581    10.0836     1.6420 H       
  75 H75           -4.6773     9.0632     2.8222 H       
  76 H76           -2.1096     5.7946     4.0788 H       
  77 H77           -3.2033     6.2674     2.7565 H       
  78 H78           -2.8931     4.0435     1.7046 H       
  79 H79           -1.7994     3.5706     3.0269 H       
  80 H80           -3.6334     3.9025     4.6625 H       
  81 H81           -4.7271     4.3754     3.3402 H       
  82 H82           -3.6337     1.8441     2.7287 H       
  83 H83           -6.4193    -0.0305     5.5603 H       
  84 H84           -7.5130     0.4424     4.2380 H       
  85 H85           -5.4714    -2.2638     5.6501 H       
  86 H86           -5.7357    -4.6302     5.0226 H       
  87 H87           -7.1787    -5.2468     3.1250 H       
  88 H88           -8.3579    -3.4973     1.8555 H       
  89 H89           -8.0972    -1.1313     2.4860 H       
@<TRIPOS>BOND
   1    1    2 ar
   2    1   19 1
   3    1    6 ar
   4    2    3 ar
   5    2   47 1
   6    3    4 ar
   7    3   20 1
   8    4    5 ar
   9    4   48 1
  10    5    6 ar
  11    5    7 1
  12    6   49 1
  13    7    8 am
  14    7   50 1
  15    8    9 2
  16    8   23 1
  17   10   11 ar
  18   10   15 ar
  19   10   23 1
  20   11   12 ar
  21   11   51 1
  22   12   13 ar
  23   12   52 1
  24   13   14 ar
  25   13   16 1
  26   14   15 ar
  27   14   53 1
  28   15   54 1
  29   16   17 1
  30   17   18 1
  31   17   29 1
  32   17   32 1
  33   18   21 2
  34   18   22 am
  35   19   55 1
  36   19   56 1
  37   19   57 1
  38   20   58 1
  39   20   59 1
  40   20   60 1
  41   22   24 1
  42   22   61 1
  43   23   62 1
  44   23   63 1
  45   24   25 1
  46   24   28 1
  47   24   64 1
  48   25   26 2
  49   25   27 1
  50   27   65 1
  51   28   33 1
  52   28   66 1
  53   28   67 1
  54   29   30 1
  55   29   68 1
  56   29   69 1
  57   30   31 1
  58   30   70 1
  59   30   71 1
  60   31   32 1
  61   31   72 1
  62   31   73 1
  63   32   74 1
  64   32   75 1
  65   33   34 1
  66   33   76 1
  67   33   77 1
  68   34   35 1
  69   34   78 1
  70   34   79 1
  71   35   36 1
  72   35   80 1
  73   35   81 1
  74   36   37 am
  75   36   82 1
  76   37   38 1
  77   37   39 2
  78   38   40 1
  79   40   41 1
  80   40   83 1
  81   40   84 1
  82   41   42 ar
  83   41   46 ar
  84   42   43 ar
  85   42   85 1
  86   43   44 ar
  87   43   86 1
  88   44   45 ar
  89   44   87 1
  90   45   46 ar
  91   45   88 1
  92   46   89 1

#	End of record

