#	Name: ASD05790055
#	Creating user name:	WinNT
#	Creation time:	15. 06. 2019 21:03

#	Modifying user name:	WinNT
#	Modification time:	15. 06. 2019 21:03

#	Program:	/corina/corina34_cracker 3.40 0067  02.08.2006

@<TRIPOS>MOLECULE
ASD05790055
  42   45    0    0    0
SMALL
NO_CHARGES


@<TRIPOS>ATOM
   1 C1            -0.1753     1.4739    -0.5694 C.2     
   2 C2            -0.1532    -0.0033    -0.5732 C.ar    
   3 C3             0.8987    -0.6881    -1.1876 C.ar    
   4 C4             0.9122    -2.0691    -1.1871 C.ar    
   5 C5            -0.1121    -2.7733    -0.5803 C.ar    
   6 C6            -1.1564    -2.1008     0.0297 C.ar    
   7 C7            -1.1801    -0.7217     0.0419 C.ar    
   8 O8             0.7230     2.0966    -1.1016 O.2     
   9 N9            -1.1942     2.1310     0.0193 N.am    
  10 C10           -1.1619     3.5233     0.1191 C.ar    
  11 C11           -2.3413     4.2535     0.0190 C.ar    
  12 C12           -2.3132     5.6271     0.1171 C.ar    
  13 C13           -1.0980     6.2868     0.3178 C.ar    
  14 C14            0.0849     5.5500     0.4183 C.ar    
  15 C15            0.0488     4.1762     0.3242 C.ar    
  16 O16            0.0387     8.5045     0.6150 O.3     
  17 C17           -1.0638     7.7588     0.4228 C.2     
  18 N18           -2.1058     8.5557     0.3439 N.2     
  19 C19           -1.6940     9.8208     0.4832 C.2     
  20 C20           -0.3450     9.8002     0.6545 C.2     
  21 C21            0.5342    10.9714     0.8472 C.ar    
  22 C22            1.9099    10.7963     1.0108 C.ar    
  23 C23            2.7252    11.8945     1.1898 C.ar    
  24 C24            2.1827    13.1673     1.2079 C.ar    
  25 C25            0.8203    13.3480     1.0468 C.ar    
  26 C26           -0.0058    12.2591     0.8607 C.ar    
  27 Cl27           2.1845     0.1946    -1.9500 Cl      
  28 H28            1.7240    -2.6003    -1.6617 H       
  29 H29           -0.0969    -3.8531    -0.5830 H       
  30 H30           -1.9527    -2.6573     0.5015 H       
  31 H31           -1.9938    -0.1987     0.5224 H       
  32 H32           -1.9499     1.6368     0.3736 H       
  33 H33           -3.2803     3.7429    -0.1361 H       
  34 H34           -3.2294     6.1936     0.0385 H       
  35 H35            1.0260     6.0567     0.5731 H       
  36 H36            0.9622     3.6058     0.4055 H       
  37 H37           -2.3201    10.7005     0.4627 H       
  38 H38            2.3345     9.8034     0.9975 H       
  39 H39            3.7893    11.7606     1.3164 H       
  40 H40            2.8255    14.0237     1.3487 H       
  41 H41            0.4034    14.3442     1.0623 H       
  42 H42           -1.0683    12.4018     0.7303 H       
@<TRIPOS>BOND
   1    1    2 1
   2    1    8 2
   3    1    9 am
   4    2    3 ar
   5    2    7 ar
   6    3    4 ar
   7    3   27 1
   8    4    5 ar
   9    4   28 1
  10    5    6 ar
  11    5   29 1
  12    6    7 ar
  13    6   30 1
  14    7   31 1
  15    9   10 1
  16    9   32 1
  17   10   11 ar
  18   10   15 ar
  19   11   12 ar
  20   11   33 1
  21   12   13 ar
  22   12   34 1
  23   13   14 ar
  24   13   17 1
  25   14   15 ar
  26   14   35 1
  27   15   36 1
  28   16   17 1
  29   16   20 1
  30   17   18 2
  31   18   19 1
  32   19   20 2
  33   19   37 1
  34   20   21 1
  35   21   22 ar
  36   21   26 ar
  37   22   23 ar
  38   22   38 1
  39   23   24 ar
  40   23   39 1
  41   24   25 ar
  42   24   40 1
  43   25   26 ar
  44   25   41 1
  45   26   42 1

#	End of record

