#	Name: ASD01917696
#	Creating user name:	WinNT
#	Creation time:	15. 06. 2019 20:09

#	Modifying user name:	WinNT
#	Modification time:	15. 06. 2019 20:09

#	Program:	/corina/corina34_cracker 3.40 0067  02.08.2006

@<TRIPOS>MOLECULE
ASD01917696
  46   48    0    0    0
SMALL
NO_CHARGES


@<TRIPOS>ATOM
   1 C1            -0.0189     1.5420     0.0105 C.3     
   2 C2             0.0021    -0.0041     0.0020 C.3     
   3 C3             1.3442    -0.3602     0.6025 C.2     
   4 N4             2.1544     0.7123     0.5924 N.am    
   5 C5             1.4890     1.8776    -0.0021 C.3     
   6 C6             1.9726     2.0879    -1.4383 C.3     
   7 C7             1.7603     3.1276     0.8374 C.3     
   8 C8             3.5253     0.7176     1.1090 C.3     
   9 O9             1.6451    -1.4541     1.0311 O.2     
  10 C10           -1.1170    -0.5514     0.8500 C.ar    
  11 N11           -1.7434     0.2483     1.6921 N.ar    
  12 C12           -2.7273    -0.1786     2.4556 C.ar    
  13 C13           -3.1444    -1.5110     2.3974 C.ar    
  14 C14           -2.4977    -2.3838     1.5123 C.ar    
  15 C15           -1.4739    -1.8823     0.7283 C.ar    
  16 C16           -4.2101    -1.9779     3.2323 C.1     
  17 C17           -5.0838    -2.3606     3.9167 C.1     
  18 C18           -6.1494    -2.8275     4.7516 C.ar    
  19 C19           -6.7884    -1.9495     5.6312 C.ar    
  20 C20           -7.8140    -2.4063     6.4322 C.ar    
  21 C21           -8.2106    -3.7304     6.3664 C.ar    
  22 C22           -7.5822    -4.6057     5.4982 C.ar    
  23 C23           -6.5593    -4.1618     4.6865 C.ar    
  24 C24           -0.1013    -0.5331    -1.4299 C.3     
  25 H25           -0.5124     1.9304    -0.8804 H       
  26 H26           -0.4952     1.9207     0.9148 H       
  27 H27            1.7647     1.1939    -2.0263 H       
  28 H28            1.4521     2.9397    -1.8759 H       
  29 H29            3.0456     2.2798    -1.4360 H       
  30 H30            2.8317     3.3271     0.8563 H       
  31 H31            1.2397     3.9793     0.3995 H       
  32 H32            1.4026     2.9669     1.8544 H       
  33 H33            3.7724    -0.2719     1.4936 H       
  34 H34            4.2150     0.9780     0.3061 H       
  35 H35            3.6084     1.4505     1.9114 H       
  36 H36           -3.2158     0.5065     3.1327 H       
  37 H37           -2.7907    -3.4210     1.4439 H       
  38 H38           -0.9558    -2.5244     0.0314 H       
  39 H39           -6.4796    -0.9159     5.6838 H       
  40 H40           -8.3085    -1.7291     7.1128 H       
  41 H41           -9.0143    -4.0825     6.9961 H       
  42 H42           -7.8968    -5.6379     5.4524 H       
  43 H43           -6.0700    -4.8459     4.0091 H       
  44 H44            0.7410    -0.1643    -2.0152 H       
  45 H45           -0.0850    -1.6229    -1.4166 H       
  46 H46           -1.0335    -0.1891    -1.8779 H       
@<TRIPOS>BOND
   1    1    2 1
   2    1    5 1
   3    1   25 1
   4    1   26 1
   5    2    3 1
   6    2   10 1
   7    2   24 1
   8    3    4 am
   9    3    9 2
  10    4    5 1
  11    4    8 1
  12    5    6 1
  13    5    7 1
  14    6   27 1
  15    6   28 1
  16    6   29 1
  17    7   30 1
  18    7   31 1
  19    7   32 1
  20    8   33 1
  21    8   34 1
  22    8   35 1
  23   10   11 ar
  24   10   15 ar
  25   11   12 ar
  26   12   13 ar
  27   12   36 1
  28   13   14 ar
  29   13   16 1
  30   14   15 ar
  31   14   37 1
  32   15   38 1
  33   16   17 3
  34   17   18 1
  35   18   19 ar
  36   18   23 ar
  37   19   20 ar
  38   19   39 1
  39   20   21 ar
  40   20   40 1
  41   21   22 ar
  42   21   41 1
  43   22   23 ar
  44   22   42 1
  45   23   43 1
  46   24   44 1
  47   24   45 1
  48   24   46 1

#	End of record

