#	Name: ASD01028307
#	Creating user name:	WinNT
#	Creation time:	15. 06. 2019 18:56

#	Modifying user name:	WinNT
#	Modification time:	15. 06. 2019 18:56

#	Program:	/corina/corina34_cracker 3.40 0067  02.08.2006

@<TRIPOS>MOLECULE
ASD01028307
  41   45    0    0    0
SMALL
NO_CHARGES


@<TRIPOS>ATOM
   1 N1            -0.0157     1.3085     0.0092 N.ar    
   2 C2             0.0021    -0.0041     0.0020 C.ar    
   3 C3             1.0891     2.0413     0.0026 C.ar    
   4 C4             2.3278     1.4750    -0.0122 C.ar    
   5 C5             2.4282     0.0721    -0.0207 C.ar    
   6 C6             1.2287    -0.6869    -0.0133 C.ar    
   7 C7             3.6648    -0.5891    -0.0355 C.ar    
   8 C8             3.6969    -1.9508    -0.0427 C.ar    
   9 C9             2.5197    -2.6971    -0.0355 C.ar    
  10 C10            1.3016    -2.0888    -0.0206 C.ar    
  11 C11            5.4823    -2.9056     1.3561 C.2     
  12 N12            5.2096    -3.9964     2.1050 N.pl3   
  13 C13            5.8245    -3.7879     3.3168 C.2     
  14 N14            6.4243    -2.6109     3.2442 N.2     
  15 N15            6.2200    -2.1009     2.0799 N.2     
  16 N16            4.4873    -5.1698     1.8792 N.2     
  17 C17            4.3886    -6.0833     2.8195 C.2     
  18 C18            5.0080    -5.8984     4.0738 C.2     
  19 C19            5.7185    -4.7669     4.3229 C.2     
  20 C20            3.6163    -7.3230     2.5590 C.ar    
  21 C21            5.0257    -2.6615    -0.0591 C.3     
  22 C22            2.9999    -7.5165     1.3243 C.ar    
  23 C23            2.2832    -8.6719     1.0872 C.ar    
  24 C24            2.1761    -9.6368     2.0725 C.ar    
  25 C25            2.7859    -9.4501     3.2999 C.ar    
  26 C26            3.5096    -8.3009     3.5461 C.ar    
  27 H27           -0.9252    -0.5577     0.0082 H       
  28 H28            1.0045     3.1180     0.0088 H       
  29 H29            3.2150     2.0908    -0.0178 H       
  30 H30            4.5846    -0.0230    -0.0415 H       
  31 H31            2.5747    -3.7757    -0.0418 H       
  32 H32            0.3981    -2.6805    -0.0152 H       
  33 H33            4.9176    -6.6573     4.8369 H       
  34 H34            6.1947    -4.6200     5.2811 H       
  35 H35            4.9213    -3.6151    -0.5768 H       
  36 H36            5.7608    -2.0455    -0.5770 H       
  37 H37            3.0825    -6.7636     0.5544 H       
  38 H38            1.8047    -8.8227     0.1308 H       
  39 H39            1.6140   -10.5393     1.8829 H       
  40 H40            2.6988   -10.2066     4.0658 H       
  41 H41            3.9854    -8.1561     4.5048 H       
@<TRIPOS>BOND
   1    1    2 ar
   2    1    3 ar
   3    2    6 ar
   4    2   27 1
   5    3    4 ar
   6    3   28 1
   7    4    5 ar
   8    4   29 1
   9    5    6 ar
  10    5    7 ar
  11    6   10 ar
  12    7    8 ar
  13    7   30 1
  14    8    9 ar
  15    8   21 1
  16    9   10 ar
  17    9   31 1
  18   10   32 1
  19   11   12 1
  20   11   21 1
  21   11   15 2
  22   12   13 1
  23   12   16 1
  24   13   14 2
  25   13   19 1
  26   14   15 1
  27   16   17 2
  28   17   18 1
  29   17   20 1
  30   18   19 2
  31   18   33 1
  32   19   34 1
  33   20   22 ar
  34   20   26 ar
  35   21   35 1
  36   21   36 1
  37   22   23 ar
  38   22   37 1
  39   23   24 ar
  40   23   38 1
  41   24   25 ar
  42   24   39 1
  43   25   26 ar
  44   25   40 1
  45   26   41 1

#	End of record

