#	Name: ASD03430899
#	Creating user name:	WinNT
#	Creation time:	15. 06. 2019 20:41

#	Modifying user name:	WinNT
#	Modification time:	15. 06. 2019 20:41

#	Program:	/corina/corina34_cracker 3.40 0067  02.08.2006

@<TRIPOS>MOLECULE
ASD03430899
  40   43    0    0    0
SMALL
NO_CHARGES


@<TRIPOS>ATOM
   1 O1            -0.0175     1.4360     0.0099 O.3     
   2 C2             0.0021    -0.0041     0.0020 C.3     
   3 C3             1.3459    -0.3164    -0.6704 C.3     
   4 C4             2.1588     0.9230    -0.4083 C.ar    
   5 C5             1.2615     1.9063     0.0003 C.ar    
   6 C6             1.7480     3.1684     0.3261 C.ar    
   7 C7             3.1021     3.4398     0.2350 C.ar    
   8 C8             3.9847     2.4533    -0.1824 C.ar    
   9 C9             3.5067     1.1966    -0.5017 C.ar    
  10 N10            2.1599    -2.4046    -1.1201 N.am    
  11 C11            1.9849    -1.5476    -0.0947 C.2     
  12 C12            1.1890    -0.5977    -2.1352 C.ar    
  13 C13            0.6783     0.1206    -3.1928 C.ar    
  14 C14            0.6718    -0.4267    -4.4639 C.ar    
  15 C15            1.1793    -1.6964    -4.6693 C.ar    
  16 C16            1.6919    -2.4205    -3.6126 C.ar    
  17 C17            1.7031    -1.8775    -2.3305 C.ar    
  18 O18            2.2851    -1.7339     1.0656 O.2     
  19 O19            3.5687     4.6755     0.5545 O.3     
  20 O20            5.0132     6.5178     2.2215 O.3     
  21 C21            5.3112     6.3261     0.8371 C.3     
  22 C22            4.9771     4.8873     0.4381 C.3     
  23 C23            5.2906     7.8359     2.6986 C.3     
  24 H24           -0.0224    -0.3969     1.0185 H       
  25 H25           -0.8260    -0.3990    -0.5865 H       
  26 H26            1.0658     3.9399     0.6513 H       
  27 H27            5.0407     2.6669    -0.2574 H       
  28 H28            4.1911     0.4266    -0.8260 H       
  29 H29            2.5567    -3.2850    -1.0283 H       
  30 H30            0.2821     1.1120    -3.0303 H       
  31 H31            0.2715     0.1368    -5.2937 H       
  32 H32            1.1741    -2.1234    -5.6613 H       
  33 H33            2.0862    -3.4118    -3.7806 H       
  34 H34            4.7169     7.0165     0.2386 H       
  35 H35            6.3707     6.5144     0.6640 H       
  36 H36            5.5041     4.1961     1.0958 H       
  37 H37            5.2864     4.7151    -0.5928 H       
  38 H38            6.3497     8.0556     2.5641 H       
  39 H39            4.6959     8.5577     2.1387 H       
  40 H40            5.0378     7.9000     3.7570 H       
@<TRIPOS>BOND
   1    1    2 1
   2    1    5 1
   3    2    3 1
   4    2   24 1
   5    2   25 1
   6    3    4 1
   7    3   11 1
   8    3   12 1
   9    4    5 ar
  10    4    9 ar
  11    5    6 ar
  12    6    7 ar
  13    6   26 1
  14    7    8 ar
  15    7   19 1
  16    8    9 ar
  17    8   27 1
  18    9   28 1
  19   10   11 am
  20   10   17 1
  21   10   29 1
  22   11   18 2
  23   12   13 ar
  24   12   17 ar
  25   13   14 ar
  26   13   30 1
  27   14   15 ar
  28   14   31 1
  29   15   16 ar
  30   15   32 1
  31   16   17 ar
  32   16   33 1
  33   19   22 1
  34   20   21 1
  35   20   23 1
  36   21   22 1
  37   21   34 1
  38   21   35 1
  39   22   36 1
  40   22   37 1
  41   23   38 1
  42   23   39 1
  43   23   40 1

#	End of record

