#	Name: ASD04840012
#	Creating user name:	WinNT
#	Creation time:	15. 06. 2019 20:52

#	Modifying user name:	WinNT
#	Modification time:	15. 06. 2019 20:52

#	Program:	/corina/corina34_cracker 3.40 0067  02.08.2006

@<TRIPOS>MOLECULE
ASD04840012
  41   43    0    0    0
SMALL
NO_CHARGES


@<TRIPOS>ATOM
   1 C1             0.7758    -1.0065     2.6434 C.3     
   2 O2             0.5278    -2.0733     1.6902 O.3     
   3 C3            -0.7125    -2.1631     1.1851 C.2     
   4 O4            -1.5867    -1.4382     1.5975 O.2     
   5 C5            -1.0147    -3.1682     0.1036 C.3     
   6 C6            -2.4247    -3.6742     0.2679 C.2     
   7 O7            -3.2296    -3.5187    -0.6197 O.2     
   8 O8            -2.7863    -4.2977     1.4002 O.3     
   9 C9            -4.1604    -4.7586     1.4890 C.3     
  10 C10           -0.8681    -2.5028    -1.2664 C.3     
  11 C11            0.5663    -2.0894    -1.4730 C.ar    
  12 C12            1.4688    -3.0078    -1.9929 C.ar    
  13 C13            2.7853    -2.6396    -2.1863 C.ar    
  14 Cl14           3.9399    -3.7621    -2.8347 Cl      
  15 C15            3.1642    -1.3301    -1.8438 C.ar    
  16 C16            2.1871    -0.4545    -1.3202 C.ar    
  17 N17            0.9332    -0.8661    -1.1620 N.ar    
  18 C18            2.5911     0.9103    -0.9655 C.ar    
  19 C19            1.6772     1.8271    -0.4430 C.ar    
  20 C20            2.0921     3.0891    -0.1244 C.ar    
  21 C21            3.4146     3.4710    -0.3146 C.ar    
  22 C22            4.3305     2.5971    -0.8233 C.ar    
  23 C23            3.9368     1.2945    -1.1605 C.ar    
  24 C24            4.8652     0.3682    -1.6901 C.ar    
  25 C25            4.4949    -0.8873    -2.0153 C.ar    
  26 H26            1.7957    -1.0852     3.0198 H       
  27 H27            0.6431    -0.0424     2.1524 H       
  28 H28            0.0746    -1.0908     3.4737 H       
  29 H29           -0.3180    -4.0031     0.1785 H       
  30 H30           -4.8356    -3.9082     1.3945 H       
  31 H31           -4.3575    -5.4701     0.6871 H       
  32 H32           -4.3194    -5.2435     2.4522 H       
  33 H33           -1.1590    -3.2074    -2.0455 H       
  34 H34           -1.5101    -1.6233    -1.3137 H       
  35 H35            1.1424    -4.0060    -2.2446 H       
  36 H36            0.6470     1.5403    -0.2917 H       
  37 H37            1.3844     3.7979     0.2794 H       
  38 H38            3.7216     4.4737    -0.0564 H       
  39 H39            5.3550     2.9078    -0.9662 H       
  40 H40            5.8915     0.6717    -1.8354 H       
  41 H41            5.2308    -1.5680    -2.4171 H       
@<TRIPOS>BOND
   1    1    2 1
   2    1   26 1
   3    1   27 1
   4    1   28 1
   5    2    3 1
   6    3    4 2
   7    3    5 1
   8    5    6 1
   9    5   10 1
  10    5   29 1
  11    6    7 2
  12    6    8 1
  13    8    9 1
  14    9   30 1
  15    9   31 1
  16    9   32 1
  17   10   11 1
  18   10   33 1
  19   10   34 1
  20   11   12 ar
  21   11   17 ar
  22   12   13 ar
  23   12   35 1
  24   13   14 1
  25   13   15 ar
  26   15   16 ar
  27   15   25 ar
  28   16   17 ar
  29   16   18 ar
  30   18   19 ar
  31   18   23 ar
  32   19   20 ar
  33   19   36 1
  34   20   21 ar
  35   20   37 1
  36   21   22 ar
  37   21   38 1
  38   22   23 ar
  39   22   39 1
  40   23   24 ar
  41   24   25 ar
  42   24   40 1
  43   25   41 1

#	End of record

