#	Name: ASD01885590
#	Creating user name:	WinNT
#	Creation time:	15. 06. 2019 19:49

#	Modifying user name:	WinNT
#	Modification time:	15. 06. 2019 19:49

#	Program:	/corina/corina34_cracker 3.40 0067  02.08.2006

@<TRIPOS>MOLECULE
ASD01885590
  48   51    0    0    0
SMALL
NO_CHARGES


@<TRIPOS>ATOM
   1 C1            -0.0168     1.3907     0.0097 C.ar    
   2 C2             0.0021    -0.0041     0.0020 C.ar    
   3 C3            -1.1828    -0.7088     0.0095 C.ar    
   4 C4            -2.3961    -0.0310     0.0247 C.ar    
   5 C5            -2.4183     1.3606     0.0319 C.ar    
   6 C6            -1.2359     2.0696     0.0308 C.ar    
   7 C7             1.2551     2.1498     0.0016 C.2     
   8 N8            -3.5941    -0.7470     0.0322 N.pl3   
   9 C9             2.1445     2.0668     1.1007 C.2     
  10 C10            3.2998     2.7576     1.0914 C.2     
  11 N11            3.6341     3.5470     0.0288 N.pl3   
  12 C12            2.7989     3.6549    -1.0570 C.2     
  13 C13            1.5883     2.9420    -1.0813 C.2     
  14 C14            4.7075     4.3381    -0.2482 C.2     
  15 N15            4.5089     4.8740    -1.4246 N.2     
  16 N16            3.3858     4.4784    -1.9121 N.2     
  17 C17            5.9058     4.5565     0.6392 C.3     
  18 C18            6.9757     3.5110     0.3180 C.3     
  19 C19           -3.5721    -2.2118     0.0241 C.3     
  20 C20           -3.4250    -2.7276     1.4571 C.3     
  21 C21           -4.8773    -2.7382    -0.5759 C.3     
  22 C22            8.3223     3.6354     1.0336 C.3     
  23 C23            7.3495     2.5203     1.4223 C.3     
  24 Cl24          -3.9356     2.2039     0.0503 Cl      
  25 C25            0.6612     3.0493    -2.2644 C.3     
  26 F26           -0.1617     4.1703    -2.1119 F       
  27 F27            1.4139     3.1794    -3.4365 F       
  28 F28           -0.1293     1.8978    -2.3434 F       
  29 H29            0.9444    -0.5316    -0.0101 H       
  30 H30           -1.1681    -1.7887     0.0032 H       
  31 H31           -1.2531     3.1495     0.0364 H       
  32 H32           -4.4413    -0.2748     0.0428 H       
  33 H33            1.8948     1.4474     1.9495 H       
  34 H34            3.9704     2.6867     1.9349 H       
  35 H35            6.3091     5.5542     0.4661 H       
  36 H36            5.6069     4.4615     1.6831 H       
  37 H37            6.9834     3.1466    -0.7093 H       
  38 H38           -2.7305    -2.5592    -0.5752 H       
  39 H39           -4.2666    -2.3802     2.0564 H       
  40 H40           -3.4086    -3.8174     1.4511 H       
  41 H41           -2.4951    -2.3526     1.8846 H       
  42 H42           -4.9821    -2.3708    -1.5968 H       
  43 H43           -4.8609    -3.8281    -0.5819 H       
  44 H44           -5.7189    -2.3908     0.0234 H       
  45 H45            9.2159     3.3524     0.4773 H       
  46 H46            8.4460     4.4620     1.7333 H       
  47 H47            6.8331     2.6133     2.3778 H       
  48 H48            7.6031     1.5037     1.1218 H       
@<TRIPOS>BOND
   1    1    2 ar
   2    1    7 1
   3    1    6 ar
   4    2    3 ar
   5    2   29 1
   6    3    4 ar
   7    3   30 1
   8    4    5 ar
   9    4    8 1
  10    5    6 ar
  11    5   24 1
  12    6   31 1
  13    7    9 1
  14    7   13 2
  15    8   19 1
  16    8   32 1
  17    9   10 2
  18    9   33 1
  19   10   11 1
  20   10   34 1
  21   11   12 1
  22   11   14 1
  23   12   13 1
  24   12   16 2
  25   13   25 1
  26   14   15 2
  27   14   17 1
  28   15   16 1
  29   17   18 1
  30   17   35 1
  31   17   36 1
  32   18   22 1
  33   18   23 1
  34   18   37 1
  35   19   20 1
  36   19   21 1
  37   19   38 1
  38   20   39 1
  39   20   40 1
  40   20   41 1
  41   21   42 1
  42   21   43 1
  43   21   44 1
  44   22   23 1
  45   22   45 1
  46   22   46 1
  47   23   47 1
  48   23   48 1
  49   25   26 1
  50   25   27 1
  51   25   28 1

#	End of record

