#	Name: ASD02030253
#	Creating user name:	WinNT
#	Creation time:	15. 06. 2019 20:14

#	Modifying user name:	WinNT
#	Modification time:	15. 06. 2019 20:14

#	Program:	/corina/corina34_cracker 3.40 0067  02.08.2006

@<TRIPOS>MOLECULE
ASD02030253
  52   55    0    0    0
SMALL
NO_CHARGES


@<TRIPOS>ATOM
   1 N1            -1.7064     2.4234     0.1287 N.am    
   2 C2            -1.3491     1.0864    -0.3658 C.3     
   3 C3            -1.3182     0.1166     0.8220 C.3     
   4 N4            -2.5590     0.2785     1.5927 N.am    
   5 C5            -2.9163     1.6155     2.0872 C.3     
   6 C6            -2.9443     2.5842     0.9042 C.3     
   7 C7            -0.9102     3.4821    -0.1198 C.2     
   8 C8            -1.3306     4.8369     0.2962 C.2     
   9 N9            -0.5977     5.9277     0.2339 N.2     
  10 N10           -2.5325     5.1729     0.7998 N.2     
  11 C11           -2.5080     6.4593     1.0393 C.2     
  12 N12           -1.2913     6.9177     0.6802 N.pl3   
  13 C13           -0.8550     8.2459     0.7772 C.ar    
  14 O14            0.1537     3.3228    -0.6860 O.2     
  15 C15           -3.3552    -0.7802     1.8412 C.2     
  16 C16           -3.0181    -2.1088     1.2790 C.ar    
  17 O17           -4.3496    -0.6450     2.5264 O.2     
  18 C18            0.4280     8.5881     0.3712 C.ar    
  19 C19            0.8551     9.8980     0.4680 C.ar    
  20 C20            0.0065    10.8682     0.9687 C.ar    
  21 C21           -1.2717    10.5305     1.3742 C.ar    
  22 C22           -1.7067     9.2235     1.2741 C.ar    
  23 C23           -4.2960     1.5673     2.7468 C.3     
  24 N24           -1.7524    -2.4061     1.0070 N.ar    
  25 C25           -1.4107    -3.5776     0.5058 C.ar    
  26 C26           -2.3738    -4.5485     0.2435 C.ar    
  27 C27           -3.7029    -4.2746     0.5141 C.ar    
  28 C28           -4.0297    -3.0356     1.0461 C.ar    
  29 O29           -0.1058    -3.8394     0.2424 O.3     
  30 C30            0.8349    -2.8036     0.5324 C.3     
  31 H31           -2.0923     0.7537    -1.0905 H       
  32 H32           -0.3661     1.1207    -0.8357 H       
  33 H33           -1.2457    -0.9076     0.4562 H       
  34 H34           -0.4613     0.3426     1.4565 H       
  35 H35           -2.1731     1.9482     2.8119 H       
  36 H36           -3.0168     3.6080     1.2714 H       
  37 H37           -3.8003     2.3597     0.2678 H       
  38 H38           -3.3163     7.0475     1.4480 H       
  39 H39            1.0913     7.8307    -0.0196 H       
  40 H40            1.8530    10.1647     0.1527 H       
  41 H41            0.3427    11.8918     1.0434 H       
  42 H42           -1.9319    11.2903     1.7655 H       
  43 H43           -2.7051     8.9603     1.5910 H       
  44 H44           -4.2190     1.0719     3.7146 H       
  45 H45           -4.6675     2.5824     2.8867 H       
  46 H46           -4.9845     1.0132     2.1088 H       
  47 H47           -2.0865    -5.5051    -0.1672 H       
  48 H48           -4.4686    -5.0109     0.3195 H       
  49 H49           -5.0577    -2.7902     1.2687 H       
  50 H50            1.8388    -3.1422     0.2760 H       
  51 H51            0.5904    -1.9166    -0.0520 H       
  52 H52            0.7933    -2.5618     1.5945 H       
@<TRIPOS>BOND
   1    1    2 1
   2    1    7 am
   3    1    6 1
   4    2    3 1
   5    2   31 1
   6    2   32 1
   7    3    4 1
   8    3   33 1
   9    3   34 1
  10    4    5 1
  11    4   15 am
  12    5    6 1
  13    5   23 1
  14    5   35 1
  15    6   36 1
  16    6   37 1
  17    7    8 1
  18    7   14 2
  19    8    9 2
  20    8   10 1
  21    9   12 1
  22   10   11 2
  23   11   12 1
  24   11   38 1
  25   12   13 1
  26   13   18 ar
  27   13   22 ar
  28   15   16 1
  29   15   17 2
  30   16   24 ar
  31   16   28 ar
  32   18   19 ar
  33   18   39 1
  34   19   20 ar
  35   19   40 1
  36   20   21 ar
  37   20   41 1
  38   21   22 ar
  39   21   42 1
  40   22   43 1
  41   23   44 1
  42   23   45 1
  43   23   46 1
  44   24   25 ar
  45   25   26 ar
  46   25   29 1
  47   26   27 ar
  48   26   47 1
  49   27   28 ar
  50   27   48 1
  51   28   49 1
  52   29   30 1
  53   30   50 1
  54   30   51 1
  55   30   52 1

#	End of record

