#	Name: ASD02038318
#	Creating user name:	WinNT
#	Creation time:	15. 06. 2019 20:16

#	Modifying user name:	WinNT
#	Modification time:	15. 06. 2019 20:16

#	Program:	/corina/corina34_cracker 3.40 0067  02.08.2006

@<TRIPOS>MOLECULE
ASD02038318
  65   68    0    0    0
SMALL
NO_CHARGES


@<TRIPOS>ATOM
   1 C1            -0.0187     1.5263     0.0104 C.3     
   2 C2             0.0021    -0.0041     0.0020 C.3     
   3 N3             0.7238    -0.4751    -1.1883 N.3     
   4 C4             0.7003    -1.9415    -1.2723 C.3     
   5 C5             1.6601    -2.4049    -2.3699 C.3     
   6 C6             1.6357    -3.9322    -2.4573 C.3     
   7 O7             2.6158    -4.3711    -3.4001 O.3     
   8 C8             2.7249    -5.7118    -3.5982 C.ar    
   9 C9             3.6526    -6.2001    -4.4959 C.ar    
  10 C10            1.9036    -6.5861    -2.8899 C.ar    
  11 C11            2.0007    -7.9471    -3.0769 C.ar    
  12 C12            2.9254    -8.4601    -3.9808 C.ar    
  13 C13            3.7604    -7.5806    -4.6950 C.ar    
  14 C14            2.1034     0.0310    -1.1988 C.3     
  15 C15            2.0826     1.5614    -1.1904 C.3     
  16 N16            1.3610     2.0324    -0.0000 N.3     
  17 C17            1.3833     3.4267     0.0798 C.ar    
  18 C18            0.7547     4.0736     1.1362 C.ar    
  19 C19            0.7791     5.4523     1.2123 C.ar    
  20 C20            1.4283     6.1888     0.2384 C.ar    
  21 C21            2.0550     5.5479    -0.8146 C.ar    
  22 C22            2.0390     4.1692    -0.8940 C.ar    
  23 N23            3.0377    -9.8207    -4.1827 N.am    
  24 C24            3.9305   -10.3191    -5.0556 C.2     
  25 C25            4.7870    -9.4796    -5.7995 C.2     
  26 C26            4.7288    -8.1339    -5.6435 C.2     
  27 O27            4.0023   -11.5263    -5.2081 O.2     
  28 O28            1.2550    -1.8495    -3.6227 O.3     
  29 C29            1.4524     7.6931     0.3245 C.3     
  30 C30            2.6813     8.1388     1.1195 C.3     
  31 C31            2.7058     9.6661     1.2069 C.3     
  32 C32            3.9347    10.1118     2.0019 C.3     
  33 H33           -0.5453     1.8877    -0.8728 H       
  34 H34           -0.5283     1.8781     0.9074 H       
  35 H35            0.5048    -0.3659     0.8989 H       
  36 H36           -1.0203    -0.3815    -0.0195 H       
  37 H37            1.0093    -2.3651    -0.3167 H       
  38 H38           -0.3100    -2.2758    -1.5082 H       
  39 H39            2.6704    -2.0706    -2.1340 H       
  40 H40            1.8583    -4.3558    -1.4780 H       
  41 H41            0.6481    -4.2619    -2.7798 H       
  42 H42            4.2910    -5.5208    -5.0413 H       
  43 H43            1.1841    -6.1929    -2.1870 H       
  44 H44            1.3595    -8.6158    -2.5219 H       
  45 H45            2.6300    -0.3304    -0.3155 H       
  46 H46            2.6130    -0.3208    -2.0958 H       
  47 H47            3.1050     1.9388    -1.1689 H       
  48 H48            1.5799     1.9232    -2.0873 H       
  49 H49            0.2472     3.4991     1.8969 H       
  50 H50            0.2903     5.9559     2.0332 H       
  51 H51            2.5612     6.1260    -1.5735 H       
  52 H52            2.5290     3.6693    -1.7164 H       
  53 H53            2.4643   -10.4263    -3.6874 H       
  54 H54            5.4940    -9.9108    -6.4928 H       
  55 H55            5.3804    -7.4842    -6.2089 H       
  56 H56            0.3635    -2.1054    -3.8965 H       
  57 H57            1.4972     8.1139    -0.6800 H       
  58 H58            0.5494     8.0429     0.8250 H       
  59 H59            2.6364     7.7180     2.1240 H       
  60 H60            3.5842     7.7890     0.6190 H       
  61 H61            2.7506    10.0869     0.2024 H       
  62 H62            1.8028    10.0159     1.7074 H       
  63 H63            3.8898     9.6911     3.0064 H       
  64 H64            4.8376     9.7620     1.5015 H       
  65 H65            3.9521    11.1999     2.0642 H       
@<TRIPOS>BOND
   1    1    2 1
   2    1   16 1
   3    1   33 1
   4    1   34 1
   5    2    3 1
   6    2   35 1
   7    2   36 1
   8    3    4 1
   9    3   14 1
  10    4    5 1
  11    4   37 1
  12    4   38 1
  13    5    6 1
  14    5   28 1
  15    5   39 1
  16    6    7 1
  17    6   40 1
  18    6   41 1
  19    7    8 1
  20    8    9 ar
  21    8   10 ar
  22    9   13 ar
  23    9   42 1
  24   10   11 ar
  25   10   43 1
  26   11   12 ar
  27   11   44 1
  28   12   13 ar
  29   12   23 1
  30   13   26 1
  31   14   15 1
  32   14   45 1
  33   14   46 1
  34   15   16 1
  35   15   47 1
  36   15   48 1
  37   16   17 1
  38   17   18 ar
  39   17   22 ar
  40   18   19 ar
  41   18   49 1
  42   19   20 ar
  43   19   50 1
  44   20   21 ar
  45   20   29 1
  46   21   22 ar
  47   21   51 1
  48   22   52 1
  49   23   24 am
  50   23   53 1
  51   24   25 1
  52   24   27 2
  53   25   26 2
  54   25   54 1
  55   26   55 1
  56   28   56 1
  57   29   30 1
  58   29   57 1
  59   29   58 1
  60   30   31 1
  61   30   59 1
  62   30   60 1
  63   31   32 1
  64   31   61 1
  65   31   62 1
  66   32   63 1
  67   32   64 1
  68   32   65 1

#	End of record

