#	Name: ASD00192128
#	Creating user name:	WinNT
#	Creation time:	15. 06. 2019 18:33

#	Modifying user name:	WinNT
#	Modification time:	15. 06. 2019 18:33

#	Program:	/corina/corina34_cracker 3.40 0067  02.08.2006

@<TRIPOS>MOLECULE
ASD00192128
  47   51    0    0    0
SMALL
NO_CHARGES


@<TRIPOS>ATOM
   1 C1            -0.0102     1.3932     0.1685 C.ar    
   2 C2             0.0139     0.0088     0.2939 C.ar    
   3 C3             1.1915    -0.6777     0.2720 C.ar    
   4 C4             2.4017     0.0167     0.1209 C.ar    
   5 C5             2.3708     1.4257    -0.0063 C.ar    
   6 C6             1.1487     2.0999     0.0201 C.ar    
   7 N7             3.5725    -0.6369     0.0969 N.ar    
   8 C8             4.7267    -0.0219    -0.0424 C.ar    
   9 C9             4.8120     1.3730    -0.1767 C.ar    
  10 C10            3.6402     2.1370    -0.1632 C.ar    
  11 N11            5.8450     2.2706    -0.3342 N.pl3   
  12 C12            5.2976     3.5043    -0.4087 C.2     
  13 N13            3.9991     3.4211    -0.3077 N.2     
  14 N14            5.8935    -0.7730    -0.0567 N.pl3   
  15 C15            6.0718     4.7855    -0.5826 C.3     
  16 C16            6.5439     5.2856     0.7841 C.3     
  17 C17            7.3299     6.5863     0.6076 C.3     
  18 C18            8.5431     6.3314    -0.2891 C.3     
  19 C19            8.0710     5.8313    -1.6558 C.3     
  20 C20            7.2850     4.5305    -1.4793 C.3     
  21 C21            6.4211    -1.2368    -1.2523 C.2     
  22 C22            6.5968    -1.0872     1.1933 C.3     
  23 C23            8.0760    -0.8706     0.9921 C.2     
  24 C24            8.6098    -1.0130    -0.2240 C.2     
  25 C25            7.7586    -1.3674    -1.3602 C.2     
  26 F26            9.9353    -0.8261    -0.4064 F       
  27 F27            5.6117    -1.5516    -2.2872 F       
  28 H28           -0.9558     1.9148     0.1843 H       
  29 H29           -0.9142    -0.5309     0.4108 H       
  30 H30            1.1932    -1.7531     0.3710 H       
  31 H31            1.1199     3.1751    -0.0770 H       
  32 H32            6.7899     2.0570    -0.3823 H       
  33 H33            5.4311     5.5374    -1.0432 H       
  34 H34            5.6796     5.4672     1.4230 H       
  35 H35            7.1845     4.5336     1.2448 H       
  36 H36            6.6892     7.3383     0.1470 H       
  37 H37            7.6662     6.9426     1.5813 H       
  38 H38            9.1030     7.2581    -0.4149 H       
  39 H39            9.1837     5.5794     0.1715 H       
  40 H40            7.4303     6.5833    -2.1164 H       
  41 H41            8.9353     5.6497    -2.2947 H       
  42 H42            7.9256     3.7785    -1.0187 H       
  43 H43            6.9487     4.1742    -2.4530 H       
  44 H44            6.2373    -0.4339     1.9882 H       
  45 H45            6.4138    -2.1273     1.4632 H       
  46 H46            8.7022    -0.6007     1.8297 H       
  47 H47            8.1968    -1.7330    -2.2771 H       
@<TRIPOS>BOND
   1    1    2 ar
   2    1    6 ar
   3    1   28 1
   4    2    3 ar
   5    2   29 1
   6    3    4 ar
   7    3   30 1
   8    4    5 ar
   9    4    7 ar
  10    5    6 ar
  11    5   10 ar
  12    6   31 1
  13    7    8 ar
  14    8    9 ar
  15    8   14 1
  16    9   10 ar
  17    9   11 1
  18   10   13 1
  19   11   12 1
  20   11   32 1
  21   12   13 2
  22   12   15 1
  23   14   21 1
  24   14   22 1
  25   15   16 1
  26   15   20 1
  27   15   33 1
  28   16   17 1
  29   16   34 1
  30   16   35 1
  31   17   18 1
  32   17   36 1
  33   17   37 1
  34   18   19 1
  35   18   38 1
  36   18   39 1
  37   19   20 1
  38   19   40 1
  39   19   41 1
  40   20   42 1
  41   20   43 1
  42   21   27 1
  43   21   25 2
  44   22   23 1
  45   22   44 1
  46   22   45 1
  47   23   24 2
  48   23   46 1
  49   24   25 1
  50   24   26 1
  51   25   47 1

#	End of record

