#	Name: ASD01900041
#	Creating user name:	WinNT
#	Creation time:	15. 06. 2019 19:51

#	Modifying user name:	WinNT
#	Modification time:	15. 06. 2019 19:51

#	Program:	/corina/corina34_cracker 3.40 0067  02.08.2006

@<TRIPOS>MOLECULE
ASD01900041
  25   25    0    0    0
SMALL
NO_CHARGES


@<TRIPOS>ATOM
   1 C1             0.0474     1.4602     0.4770 C.3     
   2 C2             0.0358    -0.0452     0.2041 C.3     
   3 C3            -1.3845    -0.5486     0.2249 C.2     
   4 O4            -2.2976     0.2210     0.4371 O.2     
   5 O5             1.7221     3.2637     0.6724 O.3     
   6 C6             1.4676     1.9636     0.4561 C.2     
   7 O7             2.3773     1.1970     0.2447 O.2     
   8 N8            -1.6400    -1.8540     0.0078 N.am    
   9 C9            -2.9471    -2.3396     0.1233 C.ar    
  10 C10           -4.0198    -1.5495    -0.2683 C.ar    
  11 C11           -5.3102    -2.0319    -0.1536 C.ar    
  12 C12           -5.5335    -3.3008     0.3513 C.ar    
  13 C13           -4.4663    -4.0902     0.7422 C.ar    
  14 C14           -3.1736    -3.6147     0.6243 C.ar    
  15 Cl15          -4.7507    -5.6815     1.3752 Cl      
  16 Cl16          -6.6517    -1.0447    -0.6430 Cl      
  17 H17           -0.5312     1.9732    -0.2913 H       
  18 H18           -0.3931     1.6557     1.4547 H       
  19 H19            0.4763    -0.2406    -0.7736 H       
  20 H20            0.6144    -0.5581     0.9723 H       
  21 H21            2.6487     3.5395     0.6492 H       
  22 H22           -0.9177    -2.4568    -0.2286 H       
  23 H23           -3.8461    -0.5589    -0.6618 H       
  24 H24           -6.5424    -3.6755     0.4408 H       
  25 H25           -2.3410    -4.2313     0.9292 H       
@<TRIPOS>BOND
   1    1    2 1
   2    1    6 1
   3    1   17 1
   4    1   18 1
   5    2    3 1
   6    2   19 1
   7    2   20 1
   8    3    4 2
   9    3    8 am
  10    5    6 1
  11    5   21 1
  12    6    7 2
  13    8    9 1
  14    8   22 1
  15    9   10 ar
  16    9   14 ar
  17   10   11 ar
  18   10   23 1
  19   11   12 ar
  20   11   16 1
  21   12   13 ar
  22   12   24 1
  23   13   14 ar
  24   13   15 1
  25   14   25 1

#	End of record

