#	Name: ASD01815939
#	Creating user name:	WinNT
#	Creation time:	15. 06. 2019 19:34

#	Modifying user name:	WinNT
#	Modification time:	15. 06. 2019 19:34

#	Program:	/corina/corina34_cracker 3.40 0067  02.08.2006

@<TRIPOS>MOLECULE
ASD01815939
  48   52    0    0    0
SMALL
NO_CHARGES


@<TRIPOS>ATOM
   1 C1             0.1064     1.4781     0.3815 C.ar    
   2 C2             0.0862     0.0931     0.3728 C.ar    
   3 C3             1.2566    -0.6271     0.2336 C.ar    
   4 C4             2.4729     0.0373     0.1002 C.ar    
   5 C5             2.4903     1.4412     0.1094 C.ar    
   6 C6             1.3033     2.1566     0.2504 C.ar    
   7 N7             3.6501    -0.6793    -0.0392 N.pl3   
   8 C8             4.8508    -0.0939    -0.1710 C.2     
   9 C9             4.9914     1.2719    -0.1766 C.2     
  10 C10            3.7899     2.1252    -0.0334 C.2     
  11 C11            6.1081     2.2040    -0.2966 C.2     
  12 N12            5.5734     3.4422    -0.2267 N.am    
  13 N13            4.1874     3.3639    -0.0695 N.2     
  14 C14            6.3379     4.6896    -0.3043 C.3     
  15 O15            7.2876     1.9213    -0.4323 O.2     
  16 C16            3.5816    -2.1427    -0.0425 C.3     
  17 C17            3.4351    -2.6355    -1.4591 C.ar    
  18 C18            4.5545    -2.7844    -2.2571 C.ar    
  19 C19            4.4234    -3.2354    -3.5560 C.ar    
  20 C20            3.1661    -3.5399    -4.0600 C.ar    
  21 C21            2.0440    -3.3898    -3.2562 C.ar    
  22 C22            2.1821    -2.9433    -1.9565 C.ar    
  23 N23            3.0297    -3.9974    -5.3781 N.pl3   
  24 C24            1.8699    -4.3276    -5.9899 C.2     
  25 F25            1.3220     3.5075     0.2595 F       
  26 F26            1.2212    -1.9776     0.2273 F       
  27 C27            2.1665    -4.7194    -7.2507 C.2     
  28 C28            3.5528    -4.6260    -7.4159 C.2     
  29 N29            4.0702    -4.1878    -6.2965 N.2     
  30 C30            6.4413     5.1344    -1.7645 C.3     
  31 C31            7.2094     6.3877    -1.8424 C.1     
  32 N32            7.8021     7.3549    -1.9026 N.1     
  33 H33           -0.8163     2.0294     0.4866 H       
  34 H34           -0.8537    -0.4287     0.4762 H       
  35 H35            5.7293    -0.7134    -0.2750 H       
  36 H36            5.8329     5.4619     0.2759 H       
  37 H37            7.3380     4.5284     0.0981 H       
  38 H38            4.4947    -2.5502     0.3913 H       
  39 H39            2.7234    -2.4676     0.5458 H       
  40 H40            5.5323    -2.5474    -1.8645 H       
  41 H41            5.2980    -3.3508    -4.1790 H       
  42 H42            1.0647    -3.6255    -3.6457 H       
  43 H43            1.3096    -2.8264    -1.3307 H       
  44 H44            0.8840    -4.2866    -5.5509 H       
  45 H45            1.4583    -5.0465    -7.9976 H       
  46 H46            4.1010    -4.8693    -8.3141 H       
  47 H47            6.9463     4.3621    -2.3447 H       
  48 H48            5.4412     5.2956    -2.1670 H       
@<TRIPOS>BOND
   1    1    2 ar
   2    1    6 ar
   3    1   33 1
   4    2    3 ar
   5    2   34 1
   6    3    4 ar
   7    3   26 1
   8    4    5 ar
   9    4    7 1
  10    5    6 ar
  11    5   10 1
  12    6   25 1
  13    7    8 1
  14    7   16 1
  15    8    9 2
  16    8   35 1
  17    9   10 1
  18    9   11 1
  19   10   13 2
  20   11   12 am
  21   11   15 2
  22   12   13 1
  23   12   14 1
  24   14   30 1
  25   14   36 1
  26   14   37 1
  27   16   17 1
  28   16   38 1
  29   16   39 1
  30   17   18 ar
  31   17   22 ar
  32   18   19 ar
  33   18   40 1
  34   19   20 ar
  35   19   41 1
  36   20   21 ar
  37   20   23 1
  38   21   22 ar
  39   21   42 1
  40   22   43 1
  41   23   24 1
  42   23   29 1
  43   24   27 2
  44   24   44 1
  45   27   28 1
  46   27   45 1
  47   28   29 2
  48   28   46 1
  49   30   31 1
  50   30   47 1
  51   30   48 1
  52   31   32 3

#	End of record

