#	Name: ASD00110020
#	Creating user name:	WinNT
#	Creation time:	15. 06. 2019 18:30

#	Modifying user name:	WinNT
#	Modification time:	15. 06. 2019 18:30

#	Program:	/corina/corina34_cracker 3.40 0067  02.08.2006

@<TRIPOS>MOLECULE
ASD00110020
  75   76    0    0    0
SMALL
NO_CHARGES


@<TRIPOS>ATOM
   1 C1            -0.0187     1.5258     0.0104 C.3     
   2 C2             1.3899     3.5863    -0.0535 C.3     
   3 C3             2.8015     4.1130    -0.0843 C.2     
   4 N4             3.5142     4.1978     1.0565 N.am    
   5 O5             3.2963     4.4606    -1.1356 O.2     
   6 C6             4.8865     4.7099     1.0266 C.3     
   7 C7             5.8485     3.5708     0.6829 C.3     
   8 O8             5.8302     2.5994     1.7308 O.3     
   9 C9             5.2463     5.2850     2.3980 C.3     
  10 O10            5.2556     4.2350     3.3673 O.3     
  11 C11            0.0021    -0.0041     0.0020 C.3     
  12 C12           -1.4266    -0.5342     0.1385 C.3     
  13 N13            0.6784     4.0227    -1.2616 N.3     
  14 C14           -0.7167     3.5643    -1.2510 C.3     
  15 C15           -0.7521     2.0344    -1.2337 C.3     
  16 C16            1.4173     2.0571    -0.0004 C.3     
  17 C17            4.2262     6.3224     2.7909 C.ar    
  18 C18           -1.4059    -2.0641     0.1301 C.3     
  19 C19           -2.8346    -2.5943     0.2667 C.3     
  20 C20           -2.8138    -4.1241     0.2582 C.3     
  21 C21           -4.2425    -4.6543     0.3948 C.3     
  22 C22           -4.2218    -6.1841     0.3863 C.3     
  23 C23           -5.6505    -6.7143     0.5229 C.3     
  24 C24           -5.6297    -8.2441     0.5145 C.3     
  25 C25           -7.0584    -8.7743     0.6510 C.3     
  26 C26           -7.0377   -10.3042     0.6426 C.3     
  27 C27            2.3547     8.2255     3.5113 C.ar    
  28 C28            2.1178     6.8891     3.7737 C.ar    
  29 C29            3.0534     5.9375     3.4133 C.ar    
  30 C30            4.4659     7.6594     2.5341 C.ar    
  31 C31            3.5302     8.6109     2.8946 C.ar    
  32 H32           -0.5307     1.8782     0.9058 H       
  33 H33            0.8779     3.9710     0.8285 H       
  34 H34            3.1185     3.9198     1.8974 H       
  35 H35            4.9658     5.4926     0.2721 H       
  36 H36            5.5386     3.1031    -0.2516 H       
  37 H37            6.8576     3.9681     0.5733 H       
  38 H38            6.4183     1.8468     1.5797 H       
  39 H39            6.2332     5.7453     2.3514 H       
  40 H40            4.4077     3.7799     3.4623 H       
  41 H41            0.4324    -0.3564    -0.9354 H       
  42 H42            0.6044    -0.3639     0.8362 H       
  43 H43           -1.8569    -0.1819     1.0760 H       
  44 H44           -2.0289    -0.1745    -0.6956 H       
  45 H45            0.7289     5.0247    -1.3689 H       
  46 H46           -1.2187     3.9493    -0.3634 H       
  47 H47           -1.2257     3.9293    -2.1430 H       
  48 H48           -0.2624     1.6489    -2.1279 H       
  49 H49           -1.7876     1.6947    -1.2100 H       
  50 H50            1.9319     1.7335     0.9043 H       
  51 H51            1.9413     1.6719    -0.8752 H       
  52 H52           -0.9756    -2.4165    -0.8073 H       
  53 H53           -0.8035    -2.4239     0.9643 H       
  54 H54           -3.2648    -2.2419     1.2041 H       
  55 H55           -3.4369    -2.2345    -0.5675 H       
  56 H56           -2.3835    -4.4765    -0.6792 H       
  57 H57           -2.2115    -4.4839     1.0924 H       
  58 H58           -4.6728    -4.3019     1.3322 H       
  59 H59           -4.8448    -4.2945    -0.4394 H       
  60 H60           -3.7915    -6.5365    -0.5511 H       
  61 H61           -3.6194    -6.5439     1.2205 H       
  62 H62           -6.0807    -6.3619     1.4603 H       
  63 H63           -6.2528    -6.3545    -0.3113 H       
  64 H64           -5.1994    -8.5965    -0.4230 H       
  65 H65           -5.0274    -8.6039     1.3486 H       
  66 H66           -7.4887    -8.4219     1.5884 H       
  67 H67           -7.6607    -8.4145    -0.1832 H       
  68 H68           -6.4353   -10.6639     1.4767 H       
  69 H69           -8.0555   -10.6819     0.7398 H       
  70 H70           -6.6074   -10.6565    -0.2949 H       
  71 H71            1.6237     8.9689     3.7930 H       
  72 H72            1.1994     6.5879     4.2556 H       
  73 H73            2.8680     4.8934     3.6176 H       
  74 H74            5.3843     7.9605     2.0522 H       
  75 H75            3.7153     9.6550     2.6895 H       
@<TRIPOS>BOND
   1    1   11 1
   2    1   16 1
   3    1   15 1
   4    1   32 1
   5    2    3 1
   6    2   13 1
   7    2   16 1
   8    2   33 1
   9    3    4 am
  10    3    5 2
  11    4    6 1
  12    4   34 1
  13    6    7 1
  14    6    9 1
  15    6   35 1
  16    7    8 1
  17    7   36 1
  18    7   37 1
  19    8   38 1
  20    9   10 1
  21    9   17 1
  22    9   39 1
  23   10   40 1
  24   11   12 1
  25   11   41 1
  26   11   42 1
  27   12   18 1
  28   12   43 1
  29   12   44 1
  30   13   14 1
  31   13   45 1
  32   14   15 1
  33   14   46 1
  34   14   47 1
  35   15   48 1
  36   15   49 1
  37   16   50 1
  38   16   51 1
  39   17   30 ar
  40   17   29 ar
  41   18   19 1
  42   18   52 1
  43   18   53 1
  44   19   20 1
  45   19   54 1
  46   19   55 1
  47   20   21 1
  48   20   56 1
  49   20   57 1
  50   21   22 1
  51   21   58 1
  52   21   59 1
  53   22   23 1
  54   22   60 1
  55   22   61 1
  56   23   24 1
  57   23   62 1
  58   23   63 1
  59   24   25 1
  60   24   64 1
  61   24   65 1
  62   25   26 1
  63   25   66 1
  64   25   67 1
  65   26   68 1
  66   26   69 1
  67   26   70 1
  68   27   28 ar
  69   27   31 ar
  70   27   71 1
  71   28   29 ar
  72   28   72 1
  73   29   73 1
  74   30   31 ar
  75   30   74 1
  76   31   75 1

#	End of record

