#	Name: ASD01230410
#	Creating user name:	WinNT
#	Creation time:	15. 06. 2019 19:14

#	Modifying user name:	WinNT
#	Modification time:	15. 06. 2019 19:14

#	Program:	/corina/corina34_cracker 3.40 0067  02.08.2006

@<TRIPOS>MOLECULE
ASD01230410
  26   27    0    0    0
SMALL
NO_CHARGES


@<TRIPOS>ATOM
   1 C1             1.7631    -1.5542     3.5497 C.ar    
   2 C2             2.8027    -0.6418     3.5179 C.ar    
   3 C3             3.4143    -0.3316     2.3189 C.ar    
   4 C4             2.9855    -0.9358     1.1458 C.ar    
   5 C5             1.9427    -1.8505     1.1799 C.ar    
   6 C6             1.3339    -2.1578     2.3811 C.ar    
   7 O7             3.5856    -0.6317    -0.0351 O.3     
   8 C8             4.6706     0.1857    -0.0073 C.ar    
   9 C9             5.9408    -0.3503     0.1500 C.ar    
  10 C10            7.0422     0.4830     0.1780 C.ar    
  11 C11            6.8798     1.8501     0.0493 C.ar    
  12 C12            5.6152     2.3868    -0.1072 C.ar    
  13 C13            4.5110     1.5575    -0.1420 C.ar    
  14 C14            8.0832     2.7567     0.0801 C.3     
  15 Br15           0.9329    -1.9826     5.1937 Br      
  16 H16            3.1359    -0.1715     4.4312 H       
  17 H17            4.2256     0.3809     2.2945 H       
  18 H18            1.6071    -2.3217     0.2679 H       
  19 H19            0.5225    -2.8700     2.4082 H       
  20 H20            6.0682    -1.4180     0.2510 H       
  21 H21            8.0310     0.0663     0.3008 H       
  22 H22            5.4910     3.4550    -0.2068 H       
  23 H23            3.5239     1.9768    -0.2694 H       
  24 H24            8.4637     2.8900    -0.9326 H       
  25 H25            7.7982     3.7250     0.4915 H       
  26 H26            8.8581     2.3108     0.7037 H       
@<TRIPOS>BOND
   1    1    2 ar
   2    1    6 ar
   3    1   15 1
   4    2    3 ar
   5    2   16 1
   6    3    4 ar
   7    3   17 1
   8    4    5 ar
   9    4    7 1
  10    5    6 ar
  11    5   18 1
  12    6   19 1
  13    7    8 1
  14    8    9 ar
  15    8   13 ar
  16    9   10 ar
  17    9   20 1
  18   10   11 ar
  19   10   21 1
  20   11   12 ar
  21   11   14 1
  22   12   13 ar
  23   12   22 1
  24   13   23 1
  25   14   24 1
  26   14   25 1
  27   14   26 1

#	End of record

