#	Name: ASD03540478
#	Creating user name:	WinNT
#	Creation time:	15. 06. 2019 20:43

#	Modifying user name:	WinNT
#	Modification time:	15. 06. 2019 20:43

#	Program:	/corina/corina34_cracker 3.40 0067  02.08.2006

@<TRIPOS>MOLECULE
ASD03540478
  54   58    0    0    0
SMALL
NO_CHARGES


@<TRIPOS>ATOM
   1 N1            -0.0169     1.3921     0.0097 N.4     
   2 C2             0.0021    -0.0041     0.0020 C.2     
   3 N3             1.1517    -0.6983    -0.0122 N.am    
   4 C4             2.3478    -0.0755    -0.0203 C.2     
   5 C5             2.3895     1.4017    -0.0132 C.ar    
   6 C6             3.5997     2.0907    -0.0206 C.ar    
   7 C7             3.5971     3.4715    -0.0132 C.ar    
   8 C8             2.3999     4.1655     0.0019 C.ar    
   9 C9             1.1941     3.4847     0.0098 C.ar    
  10 C10            1.1833     2.1079     0.0021 C.ar    
  11 C11           -0.7541     1.8043    -1.1043 C.2     
  12 O12           -0.2344     2.4979    -1.9526 O.2     
  13 N13           -2.0425     1.4309    -1.2355 N.am    
  14 C14           -2.8151     1.8628    -2.4028 C.3     
  15 O15           -8.1093     0.0338    -1.9252 O.3     
  16 C16           -8.7097     1.3005    -1.5962 C.3     
  17 O17           -7.6245     2.0554    -1.0254 O.3     
  18 C18           -6.4901     1.5447    -1.5871 C.ar    
  19 C19           -6.7883     0.3015    -2.1405 C.ar    
  20 C20           -5.2021     2.0464    -1.6740 C.ar    
  21 C21           -4.2157     1.3145    -2.3091 C.ar    
  22 C22           -4.5116     0.0813    -2.8586 C.ar    
  23 C23           -5.7952    -0.4261    -2.7752 C.ar    
  24 C24            1.1054    -2.1626    -0.0187 C.3     
  25 C25            2.1862    -3.3818    -3.4274 C.ar    
  26 C26            2.2524    -2.9289    -2.1233 C.ar    
  27 C27            1.0759    -2.6579    -1.4416 C.ar    
  28 C28           -0.1284    -2.8541    -2.1001 C.ar    
  29 C29           -0.1162    -3.3098    -3.4048 C.ar    
  30 N30            1.0224    -3.5569    -4.0223 N.ar    
  31 O31            3.3776    -0.7204    -0.0328 O.2     
  32 O32           -1.0497    -0.6071     0.0088 O.2     
  33 C33           -0.7691     1.8125     1.1994 C.3     
  34 H34            4.5338     1.5487    -0.0317 H       
  35 H35            4.5324     4.0116    -0.0189 H       
  36 H36            2.4061     5.2455     0.0080 H       
  37 H37            0.2637     4.0328     0.0223 H       
  38 H38           -2.4581     0.8761    -0.5569 H       
  39 H39           -2.8524     2.9518    -2.4312 H       
  40 H40           -2.3396     1.4917    -3.3108 H       
  41 H41           -9.0864     1.7905    -2.4940 H       
  42 H42           -9.5089     1.1676    -0.8671 H       
  43 H43           -4.9682     3.0101    -1.2462 H       
  44 H44           -3.7385    -0.4875    -3.3538 H       
  45 H45           -6.0235    -1.3903    -3.2047 H       
  46 H46            1.9883    -2.5563     0.4849 H       
  47 H47            0.2093    -2.5000     0.5021 H       
  48 H48            3.0982    -3.5908    -3.9668 H       
  49 H49            3.2086    -2.7878    -1.6414 H       
  50 H50           -1.0642    -2.6535    -1.5997 H       
  51 H51           -1.0500    -3.4652    -3.9246 H       
  52 H52           -0.2764     1.4318     2.0941 H       
  53 H53           -0.8057     2.9012     1.2402 H       
  54 H54           -1.7832     1.4166     1.1467 H       
@<TRIPOS>BOND
   1    1    2 1
   2    1   10 1
   3    1   11 1
   4    1   33 1
   5    2    3 am
   6    2   32 2
   7    3    4 am
   8    3   24 1
   9    4    5 1
  10    4   31 2
  11    5    6 ar
  12    5   10 ar
  13    6    7 ar
  14    6   34 1
  15    7    8 ar
  16    7   35 1
  17    8    9 ar
  18    8   36 1
  19    9   10 ar
  20    9   37 1
  21   11   12 2
  22   11   13 am
  23   13   14 1
  24   13   38 1
  25   14   21 1
  26   14   39 1
  27   14   40 1
  28   15   16 1
  29   15   19 1
  30   16   17 1
  31   16   41 1
  32   16   42 1
  33   17   18 1
  34   18   19 ar
  35   18   20 ar
  36   19   23 ar
  37   20   21 ar
  38   20   43 1
  39   21   22 ar
  40   22   23 ar
  41   22   44 1
  42   23   45 1
  43   24   27 1
  44   24   46 1
  45   24   47 1
  46   25   26 ar
  47   25   30 ar
  48   25   48 1
  49   26   27 ar
  50   26   49 1
  51   27   28 ar
  52   28   29 ar
  53   28   50 1
  54   29   30 ar
  55   29   51 1
  56   33   52 1
  57   33   53 1
  58   33   54 1

#	End of record

