#	Name: ASD01850063
#	Creating user name:	WinNT
#	Creation time:	15. 06. 2019 19:38

#	Modifying user name:	WinNT
#	Modification time:	15. 06. 2019 19:38

#	Program:	/corina/corina34_cracker 3.40 0067  02.08.2006

@<TRIPOS>MOLECULE
ASD01850063
  56   59    0    0    0
SMALL
NO_CHARGES


@<TRIPOS>ATOM
   1 C1             0.7400     2.8533     0.9615 C.ar    
   2 C2             0.2033     1.5820     0.8910 C.ar    
   3 C3             1.0085     0.5086     0.5575 C.ar    
   4 C4             2.3510     0.7058     0.2944 C.ar    
   5 C5             2.8900     1.9767     0.3638 C.ar    
   6 C6             2.0848     3.0522     0.6976 C.ar    
   7 C7             4.5823     4.1389    -1.5332 C.3     
   8 N8             4.5153     2.6960    -1.2885 N.am    
   9 C9             6.0465     4.5792    -1.5892 C.3     
  10 C10            4.6022     1.8328    -2.3200 C.2     
  11 C11            4.9092     2.3420    -3.7047 C.3     
  12 O12            4.4333     0.6464    -2.1337 O.2     
  13 C13            5.7566     1.3092    -4.4514 C.3     
  14 C14            3.6010     2.5758    -4.4637 C.3     
  15 C15            3.9157     3.1259    -5.8583 C.3     
  16 N16            4.8470     2.2088    -6.5294 N.am    
  17 C17            6.0957     1.8450    -5.8460 C.3     
  18 S18            4.4956     1.5963    -8.0273 S.o2    
  19 C19            5.1590     2.7144    -9.2167 C.ar    
  20 C20            6.4356     2.5428    -9.6672 C.ar    
  21 C21            6.9612     3.4312   -10.6121 C.ar    
  22 C22            6.1672     4.4924   -11.0879 C.ar    
  23 C23            4.8675     4.6419   -10.6100 C.ar    
  24 C24            4.3751     3.7591    -9.6913 C.ar    
  25 C25            8.2473     3.5443   -11.2924 C.2     
  26 N26            8.1892     4.5772   -12.0837 N.2     
  27 N27            6.9332     5.1853   -11.9885 N.pl3   
  28 O28            5.2377     0.3909    -8.1521 O.2     
  29 O29            3.0825     1.6567    -8.1641 O.2     
  30 C30            4.3539     2.1913     0.0773 C.3     
  31 F31            2.6104     4.2949     0.7653 F       
  32 H32            0.1100     3.6922     1.2179 H       
  33 H33           -0.8455     1.4266     1.0967 H       
  34 H34            0.5882    -0.4848     0.5030 H       
  35 H35            2.9792    -0.1335     0.0347 H       
  36 H36            4.0970     4.3695    -2.4815 H       
  37 H37            4.0743     4.6680    -0.7269 H       
  38 H38            6.4993     4.4611    -0.6048 H       
  39 H39            6.5832     3.9650    -2.3121 H       
  40 H40            6.0999     5.6254    -1.8906 H       
  41 H41            5.4598     3.2800    -3.6330 H       
  42 H42            6.6777     1.1259    -3.8982 H       
  43 H43            5.1967     0.3787    -4.5454 H       
  44 H44            3.0614     1.6334    -4.5576 H       
  45 H45            2.9879     3.2939    -3.9192 H       
  46 H46            2.9955     3.2009    -6.4378 H       
  47 H47            4.3742     4.1106    -5.7678 H       
  48 H48            6.7320     2.7253    -5.7544 H       
  49 H49            6.6140     1.0748    -6.4172 H       
  50 H50            7.0372     1.7262    -9.2962 H       
  51 H51            4.2494     5.4522   -10.9673 H       
  52 H52            3.3666     3.8788    -9.3238 H       
  53 H53            9.0957     2.8887   -11.1628 H       
  54 H54            6.6497     5.9713   -12.4812 H       
  55 H55            4.7597     2.9163     0.7829 H       
  56 H56            4.8868     1.2461     0.1808 H       
@<TRIPOS>BOND
   1    1    2 ar
   2    1    6 ar
   3    1   32 1
   4    2    3 ar
   5    2   33 1
   6    3    4 ar
   7    3   34 1
   8    4    5 ar
   9    4   35 1
  10    5    6 ar
  11    5   30 1
  12    6   31 1
  13    7    8 1
  14    7    9 1
  15    7   36 1
  16    7   37 1
  17    8   10 am
  18    8   30 1
  19    9   38 1
  20    9   39 1
  21    9   40 1
  22   10   11 1
  23   10   12 2
  24   11   13 1
  25   11   14 1
  26   11   41 1
  27   13   17 1
  28   13   42 1
  29   13   43 1
  30   14   15 1
  31   14   44 1
  32   14   45 1
  33   15   16 1
  34   15   46 1
  35   15   47 1
  36   16   17 1
  37   16   18 am
  38   17   48 1
  39   17   49 1
  40   18   19 1
  41   18   28 2
  42   18   29 2
  43   19   20 ar
  44   19   24 ar
  45   20   21 ar
  46   20   50 1
  47   21   22 ar
  48   21   25 1
  49   22   23 ar
  50   22   27 1
  51   23   24 ar
  52   23   51 1
  53   24   52 1
  54   25   26 2
  55   25   53 1
  56   26   27 1
  57   27   54 1
  58   30   55 1
  59   30   56 1

#	End of record

