#	Name: ASD02500879
#	Creating user name:	WinNT
#	Creation time:	15. 06. 2019 20:23

#	Modifying user name:	WinNT
#	Modification time:	15. 06. 2019 20:23

#	Program:	/corina/corina34_cracker 3.40 0067  02.08.2006

@<TRIPOS>MOLECULE
ASD02500879
  32   33    0    0    0
SMALL
NO_CHARGES


@<TRIPOS>ATOM
   1 S1            -0.0295     1.6326    -0.8410 S.3     
   2 C2            -0.0026    -0.0647    -0.3227 C.2     
   3 C3             1.4215    -0.4184    -0.3336 C.2     
   4 N4             2.2359     0.5568    -0.7009 N.am    
   5 C5             1.7291     1.7519    -1.0250 C.2     
   6 S6             2.6109     3.1323    -1.5231 S.2     
   7 C7            -1.0566    -0.8537     0.0080 C.2     
   8 O8             1.8231    -1.5258    -0.0272 O.2     
   9 C9             3.6824     0.3303    -0.7521 C.3     
  10 C10            4.0653    -0.1630    -2.1236 C.2     
  11 O11            3.2170    -0.3102    -2.9713 O.2     
  12 O12            5.3488    -0.4388    -2.4035 O.3     
  13 C13           -2.4009    -0.2737     0.1210 C.ar    
  14 C14           -3.5311    -1.0946     0.0179 C.ar    
  15 C15           -4.7922    -0.5431     0.1251 C.ar    
  16 C16           -4.9389     0.8279     0.3350 C.ar    
  17 C17           -3.8197     1.6426     0.4374 C.ar    
  18 C18           -2.5568     1.1004     0.3380 C.ar    
  19 O19           -5.8919    -1.3370     0.0254 O.3     
  20 C20           -5.6677    -2.7317    -0.1900 C.3     
  21 O21           -6.1812     1.3678     0.4391 O.3     
  22 H22           -0.9065    -1.9079     0.1879 H       
  23 H23            4.2040     1.2643    -0.5431 H       
  24 H24            3.9599    -0.4154    -0.0072 H       
  25 H25            5.5458    -0.7524    -3.2968 H       
  26 H26           -3.4164    -2.1560    -0.1454 H       
  27 H27           -3.9390     2.7036     0.5999 H       
  28 H28           -1.6878     1.7367     0.4181 H       
  29 H29           -5.1199    -2.8720    -1.1218 H       
  30 H30           -5.0869    -3.1385     0.6378 H       
  31 H31           -6.6255    -3.2486    -0.2503 H       
  32 H32           -6.5250     1.3921     1.3426 H       
@<TRIPOS>BOND
   1    1    2 1
   2    1    5 1
   3    2    3 1
   4    2    7 2
   5    3    4 am
   6    3    8 2
   7    4    5 am
   8    4    9 1
   9    5    6 2
  10    7   13 1
  11    7   22 1
  12    9   10 1
  13    9   23 1
  14    9   24 1
  15   10   11 2
  16   10   12 1
  17   12   25 1
  18   13   14 ar
  19   13   18 ar
  20   14   15 ar
  21   14   26 1
  22   15   16 ar
  23   15   19 1
  24   16   17 ar
  25   16   21 1
  26   17   18 ar
  27   17   27 1
  28   18   28 1
  29   19   20 1
  30   20   29 1
  31   20   30 1
  32   20   31 1
  33   21   32 1

#	End of record

