#	Name: ASD02198095
#	Creating user name:	WinNT
#	Creation time:	15. 06. 2019 20:18

#	Modifying user name:	WinNT
#	Modification time:	15. 06. 2019 20:18

#	Program:	/corina/corina34_cracker 3.40 0067  02.08.2006

@<TRIPOS>MOLECULE
ASD02198095
  58   61    0    0    0
SMALL
NO_CHARGES


@<TRIPOS>ATOM
   1 C1            -0.1964     1.4483    -0.4679 C.2     
   2 C2            -0.0493     0.0794    -0.3931 C.2     
   3 C3            -1.1435    -0.8108    -0.1463 C.1     
   4 S4             1.3005     2.2051    -0.7732 S.3     
   5 C5             2.1470     0.6666    -0.8031 C.2     
   6 C6             1.2593    -0.3598    -0.5801 C.2     
   7 C7             3.5286     0.5077    -1.0226 C.2     
   8 C8             4.3612     1.6791    -1.3763 C.ar    
   9 O9             4.0392    -0.5949    -0.9212 O.2     
  10 N10            1.6292    -1.6951    -0.5440 N.pl3   
  11 N11           -1.3922     2.1140    -0.3217 N.pl3   
  12 N12           -2.0116    -1.5170     0.0496 N.1     
  13 C13            4.3145     2.2078    -2.6666 C.ar    
  14 C14           -1.4148     3.5054    -0.2895 C.ar    
  15 C15           -2.4772     4.1963    -0.8655 C.ar    
  16 C16           -0.3777     4.2029     0.3235 C.ar    
  17 C17           -0.3976     5.5786     0.3577 C.ar    
  18 C18            5.0928     3.3003    -2.9899 C.ar    
  19 C19            5.9183     3.8712    -2.0379 C.ar    
  20 C20            5.9696     3.3513    -0.7565 C.ar    
  21 C21            5.1921     2.2630    -0.4190 C.ar    
  22 C22            6.7657     5.0643    -2.3979 C.3     
  23 C23            3.4162     1.5868    -3.7051 C.3     
  24 C24           -2.5024     5.5720    -0.8354 C.ar    
  25 C25           -1.4603     6.2754    -0.2244 C.ar    
  26 C26           -1.4849     7.7503    -0.1891 C.2     
  27 N27           -2.5103     8.4208    -0.7508 N.am    
  28 O28           -0.5802     8.3608     0.3467 O.2     
  29 C29           -2.5347     9.8852    -0.7158 C.3     
  30 C30           -1.7640    10.4441    -1.8936 C.2     
  31 C31           -3.9858    10.3917    -0.8500 C.3     
  32 C32           -3.8526    11.6633    -1.7259 C.3     
  33 C33           -2.7372    11.2628    -2.7232 C.3     
  34 O34           -0.5923    10.2710    -2.1292 O.2     
  35 H35            2.5565    -1.9453    -0.6802 H       
  36 H36            0.9609    -2.3793    -0.3826 H       
  37 H37           -2.2193     1.6136    -0.2410 H       
  38 H38           -3.2823     3.6522    -1.3368 H       
  39 H39            0.4431     3.6639     0.7731 H       
  40 H40            0.4069     6.1191     0.8341 H       
  41 H41            5.0578     3.7103    -3.9885 H       
  42 H42            6.6166     3.8011    -0.0180 H       
  43 H43            5.2330     1.8581     0.5814 H       
  44 H44            6.2076     5.9794    -2.2000 H       
  45 H45            7.6763     5.0572    -1.7988 H       
  46 H46            7.0262     5.0191    -3.4554 H       
  47 H47            2.4647     2.1181    -3.7270 H       
  48 H48            3.8919     1.6530    -4.6835 H       
  49 H49            3.2422     0.5400    -3.4558 H       
  50 H50           -3.3265     6.1075    -1.2830 H       
  51 H51           -3.2321     7.9338    -1.1783 H       
  52 H52           -2.0996    10.2426     0.2175 H       
  53 H53           -4.6069     9.6471    -1.3478 H       
  54 H54           -4.3961    10.6419     0.1284 H       
  55 H55           -4.7850    11.8721    -2.2505 H       
  56 H56           -3.5455    12.5184    -1.1238 H       
  57 H57           -2.2454    12.1505    -3.1209 H       
  58 H58           -3.1487    10.6596    -3.5325 H       
@<TRIPOS>BOND
   1    1    2 2
   2    1    4 1
   3    1   11 1
   4    2    3 1
   5    2    6 1
   6    3   12 3
   7    4    5 1
   8    5    6 2
   9    5    7 1
  10    6   10 1
  11    7    8 1
  12    7    9 2
  13    8   13 ar
  14    8   21 ar
  15   10   35 1
  16   10   36 1
  17   11   14 1
  18   11   37 1
  19   13   18 ar
  20   13   23 1
  21   14   15 ar
  22   14   16 ar
  23   15   24 ar
  24   15   38 1
  25   16   17 ar
  26   16   39 1
  27   17   25 ar
  28   17   40 1
  29   18   19 ar
  30   18   41 1
  31   19   20 ar
  32   19   22 1
  33   20   21 ar
  34   20   42 1
  35   21   43 1
  36   22   44 1
  37   22   45 1
  38   22   46 1
  39   23   47 1
  40   23   48 1
  41   23   49 1
  42   24   25 ar
  43   24   50 1
  44   25   26 1
  45   26   27 am
  46   26   28 2
  47   27   29 1
  48   27   51 1
  49   29   30 1
  50   29   31 1
  51   29   52 1
  52   30   34 2
  53   30   33 1
  54   31   32 1
  55   31   53 1
  56   31   54 1
  57   32   33 1
  58   32   55 1
  59   32   56 1
  60   33   57 1
  61   33   58 1

#	End of record

