#	Name: ASD00131007
#	Creating user name:	WinNT
#	Creation time:	15. 06. 2019 18:31

#	Modifying user name:	WinNT
#	Modification time:	15. 06. 2019 18:31

#	Program:	/corina/corina34_cracker 3.40 0067  02.08.2006

@<TRIPOS>MOLECULE
ASD00131007
  56   61    0    0    0
SMALL
NO_CHARGES


@<TRIPOS>ATOM
   1 N1             1.4178     1.3503    -1.2697 N.am    
   2 C2             1.5213     0.0110    -1.2341 C.2     
   3 C3             1.3456    -0.7224     0.0187 C.2     
   4 C4             1.0672    -0.0108     1.1880 C.2     
   5 C5             0.9633     1.4497     1.1042 C.ar    
   6 C6             0.6856     2.2107     2.2457 C.ar    
   7 C7             0.5919     3.5699     2.1497 C.ar    
   8 C8             0.7700     4.2037     0.9277 C.ar    
   9 C9             1.0441     3.4743    -0.2087 C.ar    
  10 C10            1.1440     2.0873    -0.1359 C.ar    
  11 C11            1.4597    -2.1858     0.0470 C.2     
  12 O12            2.5549    -2.7121    -0.0170 O.2     
  13 N13            0.3512    -2.9464     0.1440 N.am    
  14 O14            1.7643    -0.6004    -2.2593 O.2     
  15 O15            0.8978    -0.6504     2.3639 O.3     
  16 C16            1.6066     2.0466    -2.5447 C.3     
  17 C17            2.8021     2.9943    -2.6619 C.3     
  18 C18            2.8164     1.6506    -3.3935 C.3     
  19 C19            1.3578    -6.4866    -0.7537 C.3     
  20 N20            2.0828    -6.7811     0.4864 N.3     
  21 C21            1.3948    -6.2534     1.6691 C.3     
  22 C22            1.2571    -4.7332     1.5535 C.3     
  23 C23            0.4701    -4.4001     0.2821 C.3     
  24 C24           -0.9244    -5.0233     0.3697 C.3     
  25 C25           -0.8068    -6.5424     0.5078 C.3     
  26 C26           -0.0371    -7.1149    -0.7006 C.3     
  27 C27            1.2190    -4.9718    -0.9260 C.3     
  28 C28            0.0009    -6.8767     1.7789 C.3     
  29 C29            2.3313    -8.2226     0.6212 C.3     
  30 H30            0.5455     1.7243     3.1997 H       
  31 H31            0.3773     4.1559     3.0312 H       
  32 H32            0.6926     5.2792     0.8670 H       
  33 H33            1.1806     3.9776    -1.1545 H       
  34 H34           -0.5252    -2.5313     0.1224 H       
  35 H35            0.9108    -1.6147     2.2926 H       
  36 H36            0.6920     2.3229    -3.0694 H       
  37 H37            2.6741     3.8939    -3.2639 H       
  38 H38            3.4481     3.0996    -1.7903 H       
  39 H39            3.4719     0.8721    -3.0033 H       
  40 H40            2.6979     1.6663    -4.4770 H       
  41 H41            1.9078    -6.8961    -1.6011 H       
  42 H42            1.9697    -6.4984     2.5622 H       
  43 H43            0.7253    -4.3478     2.4233 H       
  44 H44            2.2471    -4.2803     1.4990 H       
  45 H45           -1.4474    -4.6202     1.2370 H       
  46 H46           -1.4855    -4.7840    -0.5336 H       
  47 H47           -1.8023    -6.9827     0.5654 H       
  48 H48           -0.5808    -6.8741    -1.6142 H       
  49 H49            0.0535    -8.1967    -0.6025 H       
  50 H50            2.2087    -4.5195    -0.9893 H       
  51 H51            0.6595    -4.7579    -1.8367 H       
  52 H52            0.0919    -7.9576     1.8857 H       
  53 H53           -0.5156    -6.4650     2.6460 H       
  54 H54            2.9276    -8.5690    -0.2229 H       
  55 H55            2.8703    -8.4131     1.5493 H       
  56 H56            1.3805    -8.7553     0.6374 H       
@<TRIPOS>BOND
   1    1    2 am
   2    1   10 1
   3    1   16 1
   4    2    3 1
   5    2   14 2
   6    3    4 2
   7    3   11 1
   8    4    5 1
   9    4   15 1
  10    5    6 ar
  11    5   10 ar
  12    6    7 ar
  13    6   30 1
  14    7    8 ar
  15    7   31 1
  16    8    9 ar
  17    8   32 1
  18    9   10 ar
  19    9   33 1
  20   11   12 2
  21   11   13 am
  22   13   23 1
  23   13   34 1
  24   15   35 1
  25   16   17 1
  26   16   18 1
  27   16   36 1
  28   17   18 1
  29   17   37 1
  30   17   38 1
  31   18   39 1
  32   18   40 1
  33   19   20 1
  34   19   26 1
  35   19   27 1
  36   19   41 1
  37   20   21 1
  38   20   29 1
  39   21   22 1
  40   21   28 1
  41   21   42 1
  42   22   23 1
  43   22   43 1
  44   22   44 1
  45   23   24 1
  46   23   27 1
  47   24   25 1
  48   24   45 1
  49   24   46 1
  50   25   26 1
  51   25   28 1
  52   25   47 1
  53   26   48 1
  54   26   49 1
  55   27   50 1
  56   27   51 1
  57   28   52 1
  58   28   53 1
  59   29   54 1
  60   29   55 1
  61   29   56 1

#	End of record

