#	Name: ASD07301038
#	Creating user name:	WinNT
#	Creation time:	15. 06. 2019 21:10

#	Modifying user name:	WinNT
#	Modification time:	15. 06. 2019 21:10

#	Program:	/corina/corina34_cracker 3.40 0067  02.08.2006

@<TRIPOS>MOLECULE
ASD07301038
  33   35    0    0    0
SMALL
NO_CHARGES


@<TRIPOS>ATOM
   1 C1            -0.0172     1.4148     0.0098 C.2     
   2 C2             0.0021    -0.0041     0.0020 C.2     
   3 C3             1.2456    -0.6721    -0.0134 C.2     
   4 C4             2.3923     0.0593    -0.0205 C.2     
   5 N5             2.3390     1.4075    -0.0127 N.pl3   
   6 N6             1.1131     2.0802     0.0026 N.2     
   7 O7            -1.0439    -0.6393     0.0090 O.2     
   8 O8             7.0405     4.3293    -0.0192 O.3     
   9 C9             7.8452     4.2763    -1.2020 C.3     
  10 C10            6.9277     4.4726    -2.4165 C.3     
  11 O11            5.9534     3.4236    -2.4160 O.3     
  12 C12            5.3420     3.1566    -1.2289 C.ar    
  13 C13            5.8862     3.6074    -0.0312 C.ar    
  14 C14            4.1641     2.4272    -1.2218 C.ar    
  15 C15            3.5288     2.1440    -0.0197 C.ar    
  16 C16            4.0763     2.5936     1.1773 C.ar    
  17 C17            5.2511     3.3227     1.1690 C.ar    
  18 F18            3.4601     2.3183     2.3476 F       
  19 F19            6.2860     5.7126    -2.3275 F       
  20 F20            7.6829     4.4147    -3.5927 F       
  21 F21            8.8045     5.2940    -1.1660 F       
  22 F22            8.4793     3.0320    -1.2860 F       
  23 O23            1.2964    -2.0314    -0.0208 O.3     
  24 C24            2.5929    -2.6321    -0.0364 C.3     
  25 N25           -1.2319     2.0984     0.0193 N.pl3   
  26 H26            3.3494    -0.4410    -0.0319 H       
  27 H27            3.7401     2.0780    -2.1516 H       
  28 H28            5.6755     3.6710     2.0990 H       
  29 H29            3.1299    -2.3141    -0.9301 H       
  30 H30            3.1472    -2.3230     0.8498 H       
  31 H31            2.4905    -3.7172    -0.0409 H       
  32 H32           -2.0665     1.6042     0.0205 H       
  33 H33           -1.2425     3.0683     0.0246 H       
@<TRIPOS>BOND
   1    1    2 1
   2    1    6 2
   3    1   25 1
   4    2    3 1
   5    2    7 2
   6    3    4 2
   7    3   23 1
   8    4    5 1
   9    4   26 1
  10    5    6 1
  11    5   15 1
  12    8    9 1
  13    8   13 1
  14    9   10 1
  15    9   21 1
  16    9   22 1
  17   10   11 1
  18   10   19 1
  19   10   20 1
  20   11   12 1
  21   12   13 ar
  22   12   14 ar
  23   13   17 ar
  24   14   15 ar
  25   14   27 1
  26   15   16 ar
  27   16   17 ar
  28   16   18 1
  29   17   28 1
  30   23   24 1
  31   24   29 1
  32   24   30 1
  33   24   31 1
  34   25   32 1
  35   25   33 1

#	End of record

