#	Name: ASD09116106
#	Creating user name:	WinNT
#	Creation time:	15. 06. 2019 21:20

#	Modifying user name:	WinNT
#	Modification time:	15. 06. 2019 21:20

#	Program:	/corina/corina34_cracker 3.40 0067  02.08.2006

@<TRIPOS>MOLECULE
ASD09116106
  29   30    0    0    0
SMALL
NO_CHARGES


@<TRIPOS>ATOM
   1 C1            -0.0184     1.5028     0.0103 C.2     
   2 C2             0.0021    -0.0041     0.0020 C.3     
   3 O3             1.0291     2.1267     0.0037 O.co2   
   4 O4            -1.0824     2.0980     0.0186 O.co2   
   5 C5             3.5842    -0.0039    -1.3334 C.ar    
   6 C6             4.3291    -1.1762    -1.2112 C.ar    
   7 C7             3.6107    -2.5121    -1.1234 C.3     
   8 C8             2.8670    -2.5954     0.2045 C.3     
   9 C9             1.4723    -1.9977     0.1013 C.3     
  10 C10            1.4513    -0.4944    -0.0145 C.3     
  11 C11            2.1136    -0.0643    -1.3097 C.2     
  12 C12            5.7039    -1.1266    -1.1839 C.ar    
  13 C13            6.3502     0.0939    -1.3002 C.ar    
  14 C14            5.6206     1.2610    -1.4439 C.ar    
  15 C15            4.2412     1.2234    -1.4617 C.ar    
  16 O16            1.4564     0.2194    -2.2884 O.2     
  17 H17           -0.4983    -0.3791     0.8948 H       
  18 H18           -0.5153    -0.3696    -0.8850 H       
  19 H19            2.8996    -2.5978    -1.9450 H       
  20 H20            4.3383    -3.3215    -1.1847 H       
  21 H21            2.7853    -3.6408     0.5021 H       
  22 H22            3.4314    -2.0535     0.9634 H       
  23 H23            0.9784    -2.4196    -0.7740 H       
  24 H24            0.9056    -2.2851     0.9869 H       
  25 H25            1.9900    -0.0592     0.8273 H       
  26 H26            6.2771    -2.0351    -1.0719 H       
  27 H27            7.4292     0.1345    -1.2782 H       
  28 H28            6.1334     2.2063    -1.5425 H       
  29 H29            3.6735     2.1352    -1.5744 H       
@<TRIPOS>BOND
   1    1    2 1
   2    1    3 ar
   3    1    4 ar
   4    2   10 1
   5    2   17 1
   6    2   18 1
   7    5    6 ar
   8    5   11 1
   9    5   15 ar
  10    6    7 1
  11    6   12 ar
  12    7    8 1
  13    7   19 1
  14    7   20 1
  15    8    9 1
  16    8   21 1
  17    8   22 1
  18    9   10 1
  19    9   23 1
  20    9   24 1
  21   10   11 1
  22   10   25 1
  23   11   16 2
  24   12   13 ar
  25   12   26 1
  26   13   14 ar
  27   13   27 1
  28   14   15 ar
  29   14   28 1
  30   15   29 1

#	End of record

