#	Name: ASD03090761
#	Creating user name:	WinNT
#	Creation time:	15. 06. 2019 20:29

#	Modifying user name:	WinNT
#	Modification time:	15. 06. 2019 20:29

#	Program:	/corina/corina34_cracker 3.40 0067  02.08.2006

@<TRIPOS>MOLECULE
ASD03090761
  43   45    0    0    0
SMALL
NO_CHARGES


@<TRIPOS>ATOM
   1 C1            -0.0173     1.4248     0.0099 C.3     
   2 O2             0.0021    -0.0041     0.0020 O.3     
   3 C3            -1.2003    -0.6375     0.0101 C.ar    
   4 C4            -1.2554    -2.0237     0.0032 C.ar    
   5 C5            -2.4789    -2.6651     0.0114 C.ar    
   6 C6            -3.6478    -1.9268     0.0264 C.ar    
   7 C7            -3.5955    -0.5452     0.0329 C.ar    
   8 C8            -2.3745     0.1010     0.0310 C.ar    
   9 C9            -4.9811    -2.6292     0.0354 C.3     
  10 N10           -5.8978    -1.9254     0.9357 N.am    
  11 C11           -6.9267    -2.5869     1.5016 C.2     
  12 O12           -7.0938    -3.7647     1.2654 O.2     
  13 C13           -7.8697    -1.8630     2.4278 C.3     
  14 C14           -9.3037    -1.6401     1.9431 C.3     
  15 C15           -9.0177    -2.6691     3.0386 C.3     
  16 C16           -9.4391    -2.3248     4.4439 C.ar    
  17 C17           -9.3704    -3.2808     5.4400 C.ar    
  18 C18           -9.7571    -2.9650     6.7290 C.ar    
  19 C19          -10.2120    -1.6930     7.0221 C.ar    
  20 C20          -10.2798    -0.7367     6.0262 C.ar    
  21 C21           -9.8891    -1.0513     4.7381 C.ar    
  22 C22           -5.5625    -2.6376    -1.3798 C.3     
  23 H23            1.0053     1.8021     0.0021 H       
  24 H24           -0.5445     1.7859    -0.8732 H       
  25 H25           -0.5275     1.7763     0.9067 H       
  26 H26           -0.3427    -2.6008    -0.0090 H       
  27 H27           -2.5223    -3.7442     0.0056 H       
  28 H28           -4.5100     0.0293     0.0440 H       
  29 H29           -2.3342     1.1803     0.0361 H       
  30 H30           -4.8492    -3.6548     0.3801 H       
  31 H31           -5.7642    -0.9834     1.1246 H       
  32 H32           -7.4191    -1.0833     3.0420 H       
  33 H33           -9.7967    -0.7140     2.2388 H       
  34 H34           -9.5650    -2.0171     0.9543 H       
  35 H35           -9.0909    -3.7231     2.7706 H       
  36 H36           -9.0150    -4.2746     5.2110 H       
  37 H37           -9.7040    -3.7121     7.5071 H       
  38 H38          -10.5147    -1.4464     8.0290 H       
  39 H39          -10.6356     0.2570     6.2551 H       
  40 H40           -9.9421    -0.3041     3.9600 H       
  41 H41           -4.8805    -3.1612    -2.0497 H       
  42 H42           -6.5269    -3.1457    -1.3734 H       
  43 H43           -5.6945    -1.6120    -1.7246 H       
@<TRIPOS>BOND
   1    1    2 1
   2    1   23 1
   3    1   24 1
   4    1   25 1
   5    2    3 1
   6    3    4 ar
   7    3    8 ar
   8    4    5 ar
   9    4   26 1
  10    5    6 ar
  11    5   27 1
  12    6    7 ar
  13    6    9 1
  14    7    8 ar
  15    7   28 1
  16    8   29 1
  17    9   10 1
  18    9   22 1
  19    9   30 1
  20   10   11 am
  21   10   31 1
  22   11   12 2
  23   11   13 1
  24   13   14 1
  25   13   15 1
  26   13   32 1
  27   14   15 1
  28   14   33 1
  29   14   34 1
  30   15   16 1
  31   15   35 1
  32   16   17 ar
  33   16   21 ar
  34   17   18 ar
  35   17   36 1
  36   18   19 ar
  37   18   37 1
  38   19   20 ar
  39   19   38 1
  40   20   21 ar
  41   20   39 1
  42   21   40 1
  43   22   41 1
  44   22   42 1
  45   22   43 1

#	End of record

