#	Name: ASD00960269
#	Creating user name:	WinNT
#	Creation time:	15. 06. 2019 18:53

#	Modifying user name:	WinNT
#	Modification time:	15. 06. 2019 18:53

#	Program:	/corina/corina34_cracker 3.40 0067  02.08.2006

@<TRIPOS>MOLECULE
ASD00960269
  39   42    0    0    0
SMALL
NO_CHARGES


@<TRIPOS>ATOM
   1 C1            -0.0169     1.3960     0.0097 C.2     
   2 C2             0.0021    -0.0041     0.0020 C.2     
   3 N3             1.2785     1.8198    -0.0004 N.pl3   
   4 C4             2.1016     0.7259    -0.0006 C.2     
   5 C5             1.3601    -0.3917    -0.0068 C.2     
   6 N6             1.7969     3.1241     0.0043 N.2     
   7 C7             3.0647     3.2859    -0.2330 C.2     
   8 N8             3.8921     2.2250    -0.5263 N.pl3   
   9 C9             3.6061     0.8850     0.0171 C.3     
  10 N10            4.1081     0.7824     1.3938 N.3     
  11 C11           -1.1709    -0.9016     0.0034 C.2     
  12 N12           -1.1578    -2.2623    -0.0041 N.pl3   
  13 N13           -2.3884    -2.6497     0.0004 N.2     
  14 N14           -3.1555    -1.6169     0.0101 N.2     
  15 N15           -2.4427    -0.5440     0.0179 N.2     
  16 C16           -1.2060     2.2458     0.0202 C.2     
  17 O17           -2.3135     1.7423     0.0235 O.2     
  18 O18           -1.0754     3.5889     0.0264 O.3     
  19 C19           -2.2798     4.3578     0.0366 C.3     
  20 C20           -1.9387     5.8256     0.0423 C.ar    
  21 C21           -1.7885     6.5049    -1.1523 C.ar    
  22 C22           -1.4756     7.8514    -1.1470 C.ar    
  23 C23           -1.3133     8.5186     0.0527 C.ar    
  24 C24           -1.4644     7.8395     1.2472 C.ar    
  25 C25           -1.7816     6.4941     1.2420 C.ar    
  26 H26            1.7340    -1.4049    -0.0165 H       
  27 H27            3.4813     4.2818    -0.1994 H       
  28 H28            4.6673     2.3604    -1.0934 H       
  29 H29            4.0690     0.1217    -0.6083 H       
  30 H30            5.1052     0.9337     1.4273 H       
  31 H31            3.6244     1.4242     2.0039 H       
  32 H32           -0.3729    -2.8322    -0.0113 H       
  33 H33           -2.8672     4.1247    -0.8515 H       
  34 H34           -2.8579     4.1156     0.9284 H       
  35 H35           -1.9153     5.9836    -2.0896 H       
  36 H36           -1.3575     8.3820    -2.0803 H       
  37 H37           -1.0681     9.5704     0.0568 H       
  38 H38           -1.3372     8.3607     2.1845 H       
  39 H39           -1.9033     5.9643     2.1753 H       
@<TRIPOS>BOND
   1    1    2 2
   2    1    3 1
   3    1   16 1
   4    2   11 1
   5    2    5 1
   6    3    4 1
   7    3    6 1
   8    4    5 2
   9    4    9 1
  10    5   26 1
  11    6    7 2
  12    7    8 1
  13    7   27 1
  14    8    9 1
  15    8   28 1
  16    9   10 1
  17    9   29 1
  18   10   30 1
  19   10   31 1
  20   11   12 1
  21   11   15 2
  22   12   13 1
  23   12   32 1
  24   13   14 2
  25   14   15 1
  26   16   17 2
  27   16   18 1
  28   18   19 1
  29   19   20 1
  30   19   33 1
  31   19   34 1
  32   20   21 ar
  33   20   25 ar
  34   21   22 ar
  35   21   35 1
  36   22   23 ar
  37   22   36 1
  38   23   24 ar
  39   23   37 1
  40   24   25 ar
  41   24   38 1
  42   25   39 1

#	End of record

