#	Name: ASD01916187
#	Creating user name:	WinNT
#	Creation time:	15. 06. 2019 20:06

#	Modifying user name:	WinNT
#	Modification time:	15. 06. 2019 20:06

#	Program:	/corina/corina34_cracker 3.40 0067  02.08.2006

@<TRIPOS>MOLECULE
ASD01916187
  42   45    0    0    0
SMALL
NO_CHARGES


@<TRIPOS>ATOM
   1 C1             0.1252     2.2734     2.9162 C.ar    
   2 C2             0.1826     1.1332     3.6979 C.ar    
   3 C3             1.4037     0.5486     3.9834 C.ar    
   4 C4             2.5683     1.1026     3.4881 C.ar    
   5 C5             2.5128     2.2455     2.7038 C.ar    
   6 C6             1.2875     2.8301     2.4188 C.ar    
   7 O7             3.6576     2.7923     2.2160 O.3     
   8 C8             3.5250     3.9688     1.4159 C.3     
   9 C9             4.8886     4.4278     0.9677 C.2     
  10 N10            5.1401     5.4994     0.2037 N.2     
  11 C11            6.4378     5.5999     0.0094 C.2     
  12 N12            7.0520     4.5609     0.6675 N.am    
  13 C13            6.0579     3.8321     1.2735 C.2     
  14 C14            7.2687     6.5538    -0.7297 C.2     
  15 C15            8.6034     6.3717    -0.7329 C.2     
  16 N16            9.1531     5.3095    -0.0525 N.am    
  17 C17            8.3891     4.4360     0.6254 C.2     
  18 O18            8.9191     3.5124     1.2122 O.2     
  19 C19           10.5425     5.1345    -0.0665 C.ar    
  20 C20           11.3281     5.7263     0.9135 C.ar    
  21 C21           12.6983     5.5519     0.8969 C.ar    
  22 C22           13.2876     4.7889    -0.0942 C.ar    
  23 C23           12.5078     4.1984    -1.0721 C.ar    
  24 C24           11.1369     4.3639    -1.0574 C.ar    
  25 C25           13.5518     6.1943     1.9598 C.3     
  26 F26           13.6881     5.3175     3.0414 F       
  27 F27           14.8147     6.4836     1.4321 F       
  28 F28           12.9449     7.3781     2.3928 F       
  29 Cl29          -1.2795     0.4355     4.3219 Cl      
  30 H30           -0.8293     2.7259     2.6911 H       
  31 H31            1.4465    -0.3411     4.5940 H       
  32 H32            3.5214     0.6465     3.7117 H       
  33 H33            1.2423     3.7199     1.8084 H       
  34 H34            2.9111     3.7472     0.5429 H       
  35 H35            3.0514     4.7558     2.0027 H       
  36 H36            6.1883     2.9452     1.8759 H       
  37 H37            6.8221     7.3824    -1.2592 H       
  38 H38            9.2413     7.0585    -1.2693 H       
  39 H39           10.8685     6.3227     1.6877 H       
  40 H40           14.3591     4.6540    -0.1051 H       
  41 H41           12.9711     3.6033    -1.8451 H       
  42 H42           10.5285     3.9026    -1.8212 H       
@<TRIPOS>BOND
   1    1    2 ar
   2    1    6 ar
   3    1   30 1
   4    2    3 ar
   5    2   29 1
   6    3    4 ar
   7    3   31 1
   8    4    5 ar
   9    4   32 1
  10    5    6 ar
  11    5    7 1
  12    6   33 1
  13    7    8 1
  14    8    9 1
  15    8   34 1
  16    8   35 1
  17    9   10 1
  18    9   13 2
  19   10   11 2
  20   11   12 1
  21   11   14 1
  22   12   13 1
  23   12   17 am
  24   13   36 1
  25   14   15 2
  26   14   37 1
  27   15   16 1
  28   15   38 1
  29   16   17 am
  30   16   19 1
  31   17   18 2
  32   19   20 ar
  33   19   24 ar
  34   20   21 ar
  35   20   39 1
  36   21   22 ar
  37   21   25 1
  38   22   23 ar
  39   22   40 1
  40   23   24 ar
  41   23   41 1
  42   24   42 1
  43   25   26 1
  44   25   27 1
  45   25   28 1

#	End of record

