#	Name: ASD03910141
#	Creating user name:	WinNT
#	Creation time:	15. 06. 2019 20:47

#	Modifying user name:	WinNT
#	Modification time:	15. 06. 2019 20:47

#	Program:	/corina/corina34_cracker 3.40 0067  02.08.2006

@<TRIPOS>MOLECULE
ASD03910141
  34   36    0    0    0
SMALL
NO_CHARGES


@<TRIPOS>ATOM
   1 C1            -0.0162     1.3453     0.0094 C.2     
   2 C2             0.0021    -0.0041     0.0020 C.2     
   3 C3             1.4877    -2.0176    -0.0216 C.2     
   4 C4             2.8346    -2.1222    -0.0346 C.2     
   5 C5             2.3762    -0.0030    -0.0203 C.2     
   6 C6             5.7623     3.8989    -0.0293 C.ar    
   7 C7             9.0541     6.1259    -0.0478 C.3     
   8 O8             7.7928     6.7974    -0.0337 O.3     
   9 C9             6.6801     6.0191    -0.0273 C.ar    
  10 C10            5.4297     6.6158    -0.0136 C.ar    
  11 C11            4.2894     5.8022    -0.0076 C.ar    
  12 C12            2.9400     6.3899     0.0064 C.2     
  13 C13            4.4712     4.4074    -0.0157 C.ar    
  14 O14            3.4013     3.5726    -0.0109 O.3     
  15 C15            3.6731     2.1697    -0.0203 C.3     
  16 C16            2.3738     1.4063    -0.0131 C.2     
  17 C17            1.1868     2.0705     0.0018 C.2     
  18 N18            1.1860    -0.6830    -0.0125 N.pl3   
  19 N19            3.3577    -0.8938    -0.0336 N.2     
  20 N20            6.8059     4.7026    -0.0346 N.ar    
  21 H21           -0.9601     1.8701     0.0168 H       
  22 H22           -0.9287    -0.5518     0.0080 H       
  23 H23            0.7813    -2.8346    -0.0196 H       
  24 H24            3.3948    -3.0455    -0.0436 H       
  25 H25            5.9136     2.8295    -0.0312 H       
  26 H26            9.8577     6.8623    -0.0516 H       
  27 H27            9.1412     5.4977     0.8388 H       
  28 H28            9.1255     5.5055    -0.9411 H       
  29 H29            5.3357     7.6917    -0.0074 H       
  30 H30            2.8184     7.4630     0.0122 H       
  31 H31            4.2390     1.9153    -0.9165 H       
  32 H32            4.2542     1.9063     0.8634 H       
  33 H33            1.1694     3.1503     0.0075 H       
  34 O34            1.9649     5.6693     0.0115 O.2     
@<TRIPOS>BOND
   1    1    2 2
   2    1   17 1
   3    1   21 1
   4    2   18 1
   5    2   22 1
   6    3    4 2
   7    3   23 1
   8    3   18 1
   9    4   24 1
  10    4   19 1
  11    5   19 2
  12    5   16 1
  13    5   18 1
  14    6   20 ar
  15    6   13 ar
  16    6   25 1
  17    7   26 1
  18    7   27 1
  19    7   28 1
  20    7    8 1
  21    8    9 1
  22    9   10 ar
  23    9   20 ar
  24   10   29 1
  25   10   11 ar
  26   11   12 1
  27   11   13 ar
  28   12   30 1
  29   12   34 2
  30   13   14 1
  31   14   15 1
  32   15   31 1
  33   15   32 1
  34   15   16 1
  35   16   17 2
  36   17   33 1

#	End of record

