#	Name: ASD08178293
#	Creating user name:	WinNT
#	Creation time:	15. 06. 2019 21:18

#	Modifying user name:	WinNT
#	Modification time:	15. 06. 2019 21:18

#	Program:	/corina/corina34_cracker 3.40 0067  02.08.2006

@<TRIPOS>MOLECULE
ASD08178293
  81   84    0    0    0
SMALL
NO_CHARGES


@<TRIPOS>ATOM
   1 N1            -0.0168     1.3902     0.0097 N.am    
   2 C2            -0.2173     0.0103     0.0231 C.ar    
   3 C3             0.8683    -0.8557    -0.0926 C.ar    
   4 N4            -1.4399    -0.4832     0.1513 N.ar    
   5 N5            -1.6667    -1.7463     0.1686 N.ar    
   6 C6            -0.7002    -2.6368     0.0602 C.ar    
   7 C7             0.6159    -2.2190    -0.0733 C.ar    
   8 C8            -1.0247    -4.1082     0.0874 C.3     
   9 C9            -1.8115    -4.4335     1.3586 C.3     
  10 C10           -2.1410    -5.9273     1.3862 C.3     
  11 C11           -2.9278    -6.2527     2.6574 C.3     
  12 C12           -3.2523    -7.7241     2.6845 C.2     
  13 N13           -2.5213    -8.6581     3.2049 N.2     
  14 N14           -2.9690    -9.8359     3.1257 N.2     
  15 C15           -4.1130   -10.0077     2.5350 C.2     
  16 S16           -4.6995    -8.4828     2.0200 S.3     
  17 N17           -4.7575   -11.2270     2.3553 N.am    
  18 C18           -4.1929   -12.3617     2.8139 C.2     
  19 C19           -4.8913   -13.6828     2.6192 C.3     
  20 O20           -3.1229   -12.3195     3.3832 O.2     
  21 C21           -4.0568   -14.7853     3.2184 C.ar    
  22 C22           -1.0750     2.2250     0.0167 C.2     
  23 C23           -0.8601     3.7130     0.1198 C.3     
  24 O24           -2.2000     1.7786    -0.0599 O.2     
  25 C25           -2.1935     4.4152     0.1067 C.ar    
  26 C26           -4.2371   -15.1474     4.5406 C.ar    
  27 C27           -3.4728   -16.1584     5.0910 C.ar    
  28 C28           -2.5259   -16.8090     4.3179 C.ar    
  29 C29           -2.3462   -16.4456     2.9942 C.ar    
  30 C30           -3.1156   -15.4375     2.4443 C.ar    
  31 C31           -2.8565     4.6619     1.2943 C.ar    
  32 C32           -4.0796     5.3059     1.2822 C.ar    
  33 C33           -4.6395     5.7036     0.0825 C.ar    
  34 C34           -3.9760     5.4577    -1.1051 C.ar    
  35 C35           -2.7509     4.8175    -1.0926 C.ar    
  36 C36           -1.3157   -17.1523     2.1517 C.3     
  37 F37           -1.7777   -17.7974     4.8551 F       
  38 N38            0.0228   -16.6910     2.5284 N.am    
  39 O39            2.3380   -16.7654     2.2496 O.3     
  40 C40            1.1079   -17.1893     1.9034 C.2     
  41 O41            0.9761   -18.0212     1.0276 O.2     
  42 C42            3.4607   -17.3454     1.5343 C.3     
  43 C43            3.3261   -17.0410     0.0410 C.3     
  44 C44            4.7659   -16.7457     2.0614 C.3     
  45 C45            3.4730   -18.8605     1.7469 C.3     
  46 H46            0.8842     1.7494    -0.0006 H       
  47 H47            1.8745    -0.4770    -0.1944 H       
  48 H48            1.4199    -2.9345    -0.1636 H       
  49 H49           -1.6240    -4.3643    -0.7864 H       
  50 H50           -0.0997    -4.6845     0.0751 H       
  51 H51           -1.2123    -4.1774     2.2323 H       
  52 H52           -2.7366    -3.8571     1.3708 H       
  53 H53           -2.7402    -6.1835     0.5124 H       
  54 H54           -1.2159    -6.5037     1.3739 H       
  55 H55           -2.3286    -5.9966     3.5311 H       
  56 H56           -3.8529    -5.6763     2.6696 H       
  57 H57           -5.6133   -11.2607     1.9000 H       
  58 H58           -5.8640   -13.6554     3.1104 H       
  59 H59           -5.0274   -13.8683     1.5537 H       
  60 H60           -0.3385     3.9413     1.0493 H       
  61 H61           -0.2620     4.0532    -0.7255 H       
  62 H62           -4.9755   -14.6396     5.1434 H       
  63 H63           -3.6137   -16.4409     6.1239 H       
  64 H64           -2.9758   -15.1540     1.4116 H       
  65 H65           -2.4191     4.3512     2.2316 H       
  66 H66           -4.5979     5.4981     2.2100 H       
  67 H67           -5.5954     6.2062     0.0730 H       
  68 H68           -4.4136     5.7681    -2.0424 H       
  69 H69           -2.2326     4.6254    -2.0204 H       
  70 H70           -1.3887   -18.2276     2.3146 H       
  71 H71           -1.4934   -16.9313     1.0992 H       
  72 H72            0.1280   -16.0270     3.2276 H       
  73 H73            3.3173   -15.9616    -0.1105 H       
  74 H74            4.1688   -17.4764    -0.4960 H       
  75 H75            2.3962   -17.4682    -0.3345 H       
  76 H76            4.8618   -16.9626     3.1253 H       
  77 H77            5.6086   -17.1811     1.5245 H       
  78 H78            4.7571   -15.6664     1.9100 H       
  79 H79            2.5432   -19.2876     1.3714 H       
  80 H80            4.3158   -19.2958     1.2100 H       
  81 H81            3.5689   -19.0773     2.8108 H       
@<TRIPOS>BOND
   1    1    2 1
   2    1   22 am
   3    1   46 1
   4    2    3 ar
   5    2    4 ar
   6    3    7 ar
   7    3   47 1
   8    4    5 ar
   9    5    6 ar
  10    6    7 ar
  11    6    8 1
  12    7   48 1
  13    8    9 1
  14    8   49 1
  15    8   50 1
  16    9   10 1
  17    9   51 1
  18    9   52 1
  19   10   11 1
  20   10   53 1
  21   10   54 1
  22   11   12 1
  23   11   55 1
  24   11   56 1
  25   12   13 2
  26   12   16 1
  27   13   14 1
  28   14   15 2
  29   15   16 1
  30   15   17 1
  31   17   18 am
  32   17   57 1
  33   18   19 1
  34   18   20 2
  35   19   21 1
  36   19   58 1
  37   19   59 1
  38   21   26 ar
  39   21   30 ar
  40   22   23 1
  41   22   24 2
  42   23   25 1
  43   23   60 1
  44   23   61 1
  45   25   31 ar
  46   25   35 ar
  47   26   27 ar
  48   26   62 1
  49   27   28 ar
  50   27   63 1
  51   28   29 ar
  52   28   37 1
  53   29   30 ar
  54   29   36 1
  55   30   64 1
  56   31   32 ar
  57   31   65 1
  58   32   33 ar
  59   32   66 1
  60   33   34 ar
  61   33   67 1
  62   34   35 ar
  63   34   68 1
  64   35   69 1
  65   36   38 1
  66   36   70 1
  67   36   71 1
  68   38   40 am
  69   38   72 1
  70   39   40 1
  71   39   42 1
  72   40   41 2
  73   42   43 1
  74   42   44 1
  75   42   45 1
  76   43   73 1
  77   43   74 1
  78   43   75 1
  79   44   76 1
  80   44   77 1
  81   44   78 1
  82   45   79 1
  83   45   80 1
  84   45   81 1

#	End of record

