#	Name: ASD02030336
#	Creating user name:	WinNT
#	Creation time:	15. 06. 2019 20:15

#	Modifying user name:	WinNT
#	Modification time:	15. 06. 2019 20:15

#	Program:	/corina/corina34_cracker 3.40 0067  02.08.2006

@<TRIPOS>MOLECULE
ASD02030336
  38   40    0    0    0
SMALL
NO_CHARGES


@<TRIPOS>ATOM
   1 C1            -0.0184     1.5028     0.0103 C.3     
   2 N2             0.0354    -2.0968     0.6048 N.pl3   
   3 N3             0.0225    -0.7690     1.0622 N.2     
   4 C4             0.0021    -0.0041     0.0020 C.2     
   5 N5             0.0014    -0.7720    -1.0871 N.2     
   6 C6             0.0214    -2.0337    -0.7409 C.2     
   7 C7             0.0635    -3.2568     1.3917 C.ar    
   8 C8             0.1779    -4.5028     0.7902 C.ar    
   9 C9             0.2058    -5.6437     1.5681 C.ar    
  10 C10            0.1194    -5.5459     2.9448 C.ar    
  11 C11            0.0053    -4.3062     3.5468 C.ar    
  12 C12           -0.0173    -3.1613     2.7744 C.ar    
  13 N13            1.3598     2.0112    -0.0001 N.3     
  14 C14            1.3840     3.4624    -0.2308 C.3     
  15 C15            2.8361     3.9389    -0.3138 C.3     
  16 N16            3.5337     3.5950     0.9331 N.3     
  17 C17            3.5095     2.1439     1.1638 C.3     
  18 C18            2.0575     1.6674     1.2467 C.3     
  19 C19            0.6659     3.7826    -1.5433 C.3     
  20 H20           -0.5455     1.8639    -0.8728 H       
  21 H21           -0.5286     1.8543     0.9071 H       
  22 H22            0.0258    -2.8769    -1.4157 H       
  23 H23            0.2447    -4.5799    -0.2850 H       
  24 H24            0.2948    -6.6133     1.1008 H       
  25 H25            0.1407    -6.4394     3.5509 H       
  26 H26           -0.0623    -4.2329     4.6222 H       
  27 H27           -0.1018    -2.1931     3.2454 H       
  28 H28            0.8812     3.9699     0.5924 H       
  29 H29            3.3312     3.4517    -1.1538 H       
  30 H30            2.8567     5.0194    -0.4559 H       
  31 H31            4.4803     3.9443     0.9259 H       
  32 H32            4.0123     1.6364     0.3406 H       
  33 H33            4.0211     1.9157     2.0988 H       
  34 H34            1.5623     2.1545     2.0867 H       
  35 H35            2.0368     0.5869     1.3889 H       
  36 H36           -0.3676     3.4414    -1.4846 H       
  37 H37            0.6841     4.8590    -1.7141 H       
  38 H38            1.1698     3.2756    -2.3662 H       
@<TRIPOS>BOND
   1    1    4 1
   2    1   13 1
   3    1   20 1
   4    1   21 1
   5    2    3 1
   6    2    6 1
   7    2    7 1
   8    3    4 2
   9    4    5 1
  10    5    6 2
  11    6   22 1
  12    7    8 ar
  13    7   12 ar
  14    8    9 ar
  15    8   23 1
  16    9   10 ar
  17    9   24 1
  18   10   11 ar
  19   10   25 1
  20   11   12 ar
  21   11   26 1
  22   12   27 1
  23   13   14 1
  24   13   18 1
  25   14   15 1
  26   14   19 1
  27   14   28 1
  28   15   16 1
  29   15   29 1
  30   15   30 1
  31   16   17 1
  32   16   31 1
  33   17   18 1
  34   17   32 1
  35   17   33 1
  36   18   34 1
  37   18   35 1
  38   19   36 1
  39   19   37 1
  40   19   38 1

#	End of record

