#	Name: ASD01890256
#	Creating user name:	WinNT
#	Creation time:	15. 06. 2019 19:50

#	Modifying user name:	WinNT
#	Modification time:	15. 06. 2019 19:50

#	Program:	/corina/corina34_cracker 3.40 0067  02.08.2006

@<TRIPOS>MOLECULE
ASD01890256
  50   52    0    0    0
SMALL
NO_CHARGES


@<TRIPOS>ATOM
   1 C1             0.3855    -2.3996    -1.1699 C.2     
   2 C2             1.0588    -1.9884     0.1141 C.3     
   3 C3             1.5341    -0.5387    -0.0008 C.3     
   4 C4             2.0736    -0.0701     1.3520 C.3     
   5 C5             2.4075     1.3976     1.2786 C.2     
   6 O6             0.2023    -1.5854    -2.0436 O.2     
   7 O7            -0.0056    -3.6716    -1.3452 O.3     
   8 O8             2.1318     2.0332     0.2831 O.2     
   9 N9             3.0124     2.0040     2.3192 N.am    
  10 C10            3.6326     6.1259     2.2565 C.ar    
  11 C11            4.4779     5.3040     3.0005 C.ar    
  12 C12            4.2712     3.9413     3.0194 C.ar    
  13 C13            3.2205     3.3866     2.2982 C.ar    
  14 C14            2.3767     4.2038     1.5559 C.ar    
  15 C15            2.5799     5.5675     1.5337 C.ar    
  16 C16            3.8494     7.5934     2.2394 C.ar    
  17 C17            3.0053     8.4164     1.4962 C.ar    
  18 C18            3.2113     9.7810     1.4844 C.ar    
  19 C19            4.2532    10.3321     2.2084 C.ar    
  20 C20            5.0944     9.5199     2.9474 C.ar    
  21 C21            4.8942     8.1546     2.9712 C.ar    
  22 N22            5.1687     3.0680     3.8088 N.pl3   
  23 O23            6.0139     3.5604     4.5345 O.2     
  24 O24            5.0619     1.8571     3.7326 O.2     
  25 C25            2.6259    -0.4485    -1.0356 C.ar    
  26 C26            2.4597     0.3566    -2.1470 C.ar    
  27 C27            3.4607     0.4397    -3.0964 C.ar    
  28 C28            4.6292    -0.2830    -2.9343 C.ar    
  29 C29            4.7950    -1.0886    -1.8218 C.ar    
  30 C30            3.7956    -1.1665    -0.8703 C.ar    
  31 Cl31           5.8868    -0.1796    -4.1267 Cl      
  32 H32            0.3515    -2.0746     0.9390 H       
  33 H33            1.9144    -2.6376     0.2998 H       
  34 H34            0.6986     0.0951    -0.2980 H       
  35 H35            1.3181    -0.2328     2.1206 H       
  36 H36            2.9721    -0.6351     1.6003 H       
  37 H37           -0.4330    -3.8877    -2.1852 H       
  38 H38            3.3035     1.4813     3.0827 H       
  39 H39            5.2945     5.7345     3.5611 H       
  40 H40            1.5613     3.7706     0.9957 H       
  41 H41            1.9236     6.2023     0.9569 H       
  42 H42            2.1918     7.9872     0.9303 H       
  43 H43            2.5581    10.4198     0.9085 H       
  44 H44            4.4108    11.4005     2.1962 H       
  45 H45            5.9067     9.9555     3.5103 H       
  46 H46            5.5488     7.5219     3.5522 H       
  47 H47            1.5474     0.9205    -2.2737 H       
  48 H48            3.3306     1.0685    -3.9649 H       
  49 H49            5.7069    -1.6531    -1.6947 H       
  50 H50            3.9266    -1.7919     0.0004 H       
@<TRIPOS>BOND
   1    1    2 1
   2    1    6 2
   3    1    7 1
   4    2    3 1
   5    2   32 1
   6    2   33 1
   7    3    4 1
   8    3   25 1
   9    3   34 1
  10    4    5 1
  11    4   35 1
  12    4   36 1
  13    5    8 2
  14    5    9 am
  15    7   37 1
  16    9   13 1
  17    9   38 1
  18   10   11 ar
  19   10   15 ar
  20   10   16 1
  21   11   12 ar
  22   11   39 1
  23   12   13 ar
  24   12   22 1
  25   13   14 ar
  26   14   15 ar
  27   14   40 1
  28   15   41 1
  29   16   17 ar
  30   16   21 ar
  31   17   18 ar
  32   17   42 1
  33   18   19 ar
  34   18   43 1
  35   19   20 ar
  36   19   44 1
  37   20   21 ar
  38   20   45 1
  39   21   46 1
  40   22   23 2
  41   22   24 2
  42   25   26 ar
  43   25   30 ar
  44   26   27 ar
  45   26   47 1
  46   27   28 ar
  47   27   48 1
  48   28   29 ar
  49   28   31 1
  50   29   30 ar
  51   29   49 1
  52   30   50 1

#	End of record

