#	Name: ASD04590762
#	Creating user name:	WinNT
#	Creation time:	15. 06. 2019 20:51

#	Modifying user name:	WinNT
#	Modification time:	15. 06. 2019 20:51

#	Program:	/corina/corina34_cracker 3.40 0067  02.08.2006

@<TRIPOS>MOLECULE
ASD04590762
  34   37    0    0    0
SMALL
NO_CHARGES


@<TRIPOS>ATOM
   1 N1            -0.0159     1.3212     0.0093 N.ar    
   2 C2             0.0021    -0.0041     0.0020 C.ar    
   3 N3             1.1345    -0.6910    -0.0125 N.ar    
   4 C4             2.3024    -0.0608    -0.0203 C.ar    
   5 C5             2.3175     1.3397    -0.0129 C.ar    
   6 C6             1.1102     2.0194     0.0023 C.ar    
   7 N7             3.6157    -0.4821    -0.0355 N.pl3   
   8 C8             4.4284     0.6227    -0.0376 C.2     
   9 N9             3.6518     1.7395    -0.0239 N.pl3   
  10 C10            4.0669    -1.8759    -0.0470 C.3     
  11 C11            4.9044    -2.1484    -1.3088 C.3     
  12 C12            6.3066    -2.5713    -0.8242 C.3     
  13 C13            6.0672    -3.1086     0.6087 C.3     
  14 C14            4.9894    -2.1427     1.1603 C.3     
  15 N15           -1.2003    -0.6918     0.0103 N.pl3   
  16 N16            5.7474     0.7179    -0.0501 N.2     
  17 C17            6.3522     1.9104    -0.0497 C.2     
  18 C18            5.5692     3.0929    -0.0356 C.2     
  19 C19            4.2246     2.9818    -0.0233 C.2     
  20 O20            7.5722     1.9811    -0.0610 O.2     
  21 H21            1.0874     3.0991     0.0080 H       
  22 H22            3.2080    -2.5464    -0.0169 H       
  23 H23            4.4524    -2.9517    -1.8906 H       
  24 H24            4.9751    -1.2437    -1.9126 H       
  25 H25            6.7104    -3.3564    -1.4635 H       
  26 H26            6.9777    -1.7127    -0.8025 H       
  27 H27            5.6911    -4.1313     0.5799 H       
  28 H28            6.9800    -3.0481     1.2014 H       
  29 H29            5.4478    -1.2149     1.5025 H       
  30 H30            4.4320    -2.6149     1.9693 H       
  31 H31           -2.0383    -0.2035     0.0212 H       
  32 H32           -1.2042    -1.6618     0.0051 H       
  33 H33            6.0407     4.0645    -0.0350 H       
  34 H34            3.6054     3.8666    -0.0126 H       
@<TRIPOS>BOND
   1    1    2 ar
   2    1    6 ar
   3    2    3 ar
   4    2   15 1
   5    3    4 ar
   6    4    5 ar
   7    4    7 1
   8    5    6 ar
   9    5    9 1
  10    6   21 1
  11    7   10 1
  12    7    8 1
  13    8    9 1
  14    8   16 2
  15    9   19 1
  16   10   11 1
  17   10   14 1
  18   10   22 1
  19   11   12 1
  20   11   23 1
  21   11   24 1
  22   12   13 1
  23   12   25 1
  24   12   26 1
  25   13   14 1
  26   13   27 1
  27   13   28 1
  28   14   29 1
  29   14   30 1
  30   15   31 1
  31   15   32 1
  32   16   17 1
  33   17   18 1
  34   17   20 2
  35   18   19 2
  36   18   33 1
  37   19   34 1

#	End of record

