#	Name: ASD01870326
#	Creating user name:	WinNT
#	Creation time:	15. 06. 2019 19:39

#	Modifying user name:	WinNT
#	Modification time:	15. 06. 2019 19:39

#	Program:	/corina/corina34_cracker 3.40 0067  02.08.2006

@<TRIPOS>MOLECULE
ASD01870326
  52   54    0    0    0
SMALL
NO_CHARGES


@<TRIPOS>ATOM
   1 C1            -0.0131     1.3573    -0.5714 C.ar    
   2 C2             0.0050    -0.0206    -0.4667 C.ar    
   3 C3             1.1756     2.0682    -0.5975 C.ar    
   4 C4             2.3883     1.4030    -0.5195 C.ar    
   5 C5             2.4181     0.0252    -0.4149 C.ar    
   6 C6             1.2236    -0.6958    -0.3872 C.ar    
   7 C7             1.2492    -2.1699    -0.2750 C.2     
   8 N8             0.0942    -2.8639    -0.2485 N.am    
   9 C9             0.1195    -4.3244    -0.1373 C.3     
  10 C10           -1.3136    -4.8602    -0.1290 C.3     
  11 O11            2.3120    -2.7559    -0.2068 O.2     
  12 C12           -2.6499    -6.8756    -0.0065 C.3     
  13 C13           -2.5917    -8.3838    -0.2662 C.3     
  14 C14           -3.2954    -6.6114     1.3569 C.3     
  15 C15           -2.5421    -7.4160     2.4281 C.3     
  16 C16           -1.0284    -7.1804     2.2199 C.3     
  17 C17           -0.5947    -8.2725     1.2197 C.3     
  18 C18           -1.8872    -9.0654     0.9176 C.3     
  19 N19           -2.7345    -8.8529     2.1159 N.am    
  20 C20           -3.4984    -9.7525     2.7669 C.2     
  21 O21           -4.2076    -9.3766     3.8479 O.3     
  22 O22           -3.5469   -10.9027     2.3783 O.2     
  23 C23           -5.0080   -10.3981     4.4990 C.3     
  24 C24           -5.7368    -9.7878     5.6979 C.3     
  25 N25           -1.2882    -6.3248    -0.0176 N.3     
  26 F26           -1.1921     2.0119    -0.6540 F       
  27 F27            3.5439     2.1023    -0.5460 F       
  28 H28           -0.9224    -0.5738    -0.4460 H       
  29 H29            1.1569     3.1449    -0.6795 H       
  30 H30            3.3640    -0.4924    -0.3548 H       
  31 H31           -0.7539    -2.3963    -0.3030 H       
  32 H32            0.6594    -4.7441    -0.9862 H       
  33 H33            0.6195    -4.6097     0.7883 H       
  34 H34           -1.8535    -4.4406     0.7198 H       
  35 H35           -1.8135    -4.5749    -1.0546 H       
  36 H36           -3.2409    -6.3958    -0.7867 H       
  37 H37           -3.6036    -8.7767    -0.3643 H       
  38 H38           -2.0334    -8.5751    -1.1827 H       
  39 H39           -3.2353    -5.5482     1.5894 H       
  40 H40           -4.3396    -6.9232     1.3331 H       
  41 H41           -2.8641    -7.1577     3.4369 H       
  42 H42           -0.8525    -6.1899     1.8003 H       
  43 H43           -0.4932    -7.2948     3.1625 H       
  44 H44           -0.2055    -7.8193     0.3079 H       
  45 H45            0.1539    -8.9242     1.6702 H       
  46 H46           -1.6879   -10.1195     0.7245 H       
  47 H47           -5.7381   -10.7929     3.7925 H       
  48 H48           -4.3596   -11.2051     4.8403 H       
  49 H49           -6.3852    -8.9809     5.3566 H       
  50 H50           -6.3377   -10.5547     6.1867 H       
  51 H51           -5.0067    -9.3931     6.4045 H       
  52 H52           -0.7385    -6.7343    -0.7580 H       
@<TRIPOS>BOND
   1    1    2 ar
   2    1    3 ar
   3    1   26 1
   4    2    6 ar
   5    2   28 1
   6    3    4 ar
   7    3   29 1
   8    4    5 ar
   9    4   27 1
  10    5    6 ar
  11    5   30 1
  12    6    7 1
  13    7    8 am
  14    7   11 2
  15    8    9 1
  16    8   31 1
  17    9   10 1
  18    9   32 1
  19    9   33 1
  20   10   25 1
  21   10   34 1
  22   10   35 1
  23   12   13 1
  24   12   14 1
  25   12   25 1
  26   12   36 1
  27   13   18 1
  28   13   37 1
  29   13   38 1
  30   14   15 1
  31   14   39 1
  32   14   40 1
  33   15   16 1
  34   15   19 1
  35   15   41 1
  36   16   17 1
  37   16   42 1
  38   16   43 1
  39   17   18 1
  40   17   44 1
  41   17   45 1
  42   18   19 1
  43   18   46 1
  44   19   20 am
  45   20   21 1
  46   20   22 2
  47   21   23 1
  48   23   24 1
  49   23   47 1
  50   23   48 1
  51   24   49 1
  52   24   50 1
  53   24   51 1
  54   25   52 1

#	End of record

