#	Name: ASD03090252
#	Creating user name:	WinNT
#	Creation time:	15. 06. 2019 20:28

#	Modifying user name:	WinNT
#	Modification time:	15. 06. 2019 20:28

#	Program:	/corina/corina34_cracker 3.40 0067  02.08.2006

@<TRIPOS>MOLECULE
ASD03090252
  45   47    0    0    0
SMALL
NO_CHARGES


@<TRIPOS>ATOM
   1 N1             0.0033     1.1472     1.2738 N.ar    
   2 C2             0.0625    -0.1707     1.2666 C.ar    
   3 C3             1.2499    -0.8252     1.0113 C.ar    
   4 C4             2.4000    -0.0697     0.7579 C.ar    
   5 C5             2.2910     1.3248     0.7755 C.ar    
   6 C6             1.0632     1.8966     1.0401 C.ar    
   7 C7             3.6962    -0.7278     0.4793 C.2     
   8 N8             5.7116    -3.4481    -0.4650 N.pl3   
   9 C9             4.8716    -4.4987    -0.8486 C.ar    
  10 C10            3.6657    -4.2290    -1.4824 C.ar    
  11 C11            2.8378    -5.2681    -1.8603 C.ar    
  12 C12            3.2091    -6.5777    -1.6072 C.ar    
  13 C13            4.4111    -6.8490    -0.9752 C.ar    
  14 C14            5.2449    -5.8137    -0.6012 C.ar    
  15 N15            3.8643    -1.9765     0.0930 N.2     
  16 C16            5.1646    -2.2277    -0.0641 C.2     
  17 N17            5.8478    -1.1423     0.2197 N.2     
  18 N18            4.9158    -0.1524     0.5707 N.pl3   
  19 C19            5.2079     1.2279     0.9654 C.3     
  20 F20            2.3973    -7.5924    -1.9768 F       
  21 C21            5.2557     2.1017    -0.2615 C.2     
  22 N22            5.5108     3.4196    -0.1407 N.am    
  23 O23            5.0646     1.6191    -1.3576 O.2     
  24 C24            5.5574     4.2691    -1.3333 C.3     
  25 C25           -1.1837    -0.9722     1.5416 C.3     
  26 C26            4.8123    -8.2754    -0.7006 C.3     
  27 F27            6.0555    -8.2951    -0.0594 F       
  28 F28            3.8543    -8.8794     0.1209 F       
  29 F29            4.8993    -8.9761    -1.9083 F       
  30 H30            1.2911    -1.9044     1.0073 H       
  31 H31            3.1548     1.9445     0.5854 H       
  32 H32            0.9689     2.9724     1.0556 H       
  33 H33            6.6741    -3.5675    -0.4774 H       
  34 H34            3.3754    -3.2076    -1.6794 H       
  35 H35            1.8999    -5.0588    -2.3533 H       
  36 H36            6.1824    -6.0257    -0.1087 H       
  37 H37            4.4277     1.5867     1.6368 H       
  38 H38            6.1707     1.2641     1.4750 H       
  39 H39            5.6637     3.8056     0.7360 H       
  40 H40            5.7747     5.2960    -1.0397 H       
  41 H41            6.3375     3.9103    -2.0047 H       
  42 H42            4.5945     4.2329    -1.8429 H       
  43 H43           -1.7029    -1.1698     0.6038 H       
  44 H44           -0.9116    -1.9169     2.0123 H       
  45 H45           -1.8379    -0.4096     2.2076 H       
@<TRIPOS>BOND
   1    1    2 ar
   2    1    6 ar
   3    2    3 ar
   4    2   25 1
   5    3    4 ar
   6    3   30 1
   7    4    5 ar
   8    4    7 1
   9    5    6 ar
  10    5   31 1
  11    6   32 1
  12    7   15 2
  13    7   18 1
  14    8    9 1
  15    8   16 1
  16    8   33 1
  17    9   10 ar
  18    9   14 ar
  19   10   11 ar
  20   10   34 1
  21   11   12 ar
  22   11   35 1
  23   12   13 ar
  24   12   20 1
  25   13   14 ar
  26   13   26 1
  27   14   36 1
  28   15   16 1
  29   16   17 2
  30   17   18 1
  31   18   19 1
  32   19   21 1
  33   19   37 1
  34   19   38 1
  35   21   22 am
  36   21   23 2
  37   22   24 1
  38   22   39 1
  39   24   40 1
  40   24   41 1
  41   24   42 1
  42   25   43 1
  43   25   44 1
  44   25   45 1
  45   26   27 1
  46   26   28 1
  47   26   29 1

#	End of record

