#	Name: ASD03200013
#	Creating user name:	WinNT
#	Creation time:	15. 06. 2019 20:34

#	Modifying user name:	WinNT
#	Modification time:	15. 06. 2019 20:34

#	Program:	/corina/corina34_cracker 3.40 0067  02.08.2006

@<TRIPOS>MOLECULE
ASD03200013
  50   53    0    0    0
SMALL
NO_CHARGES


@<TRIPOS>ATOM
   1 C1             0.9674    -1.0243    -0.1637 C.3     
   2 N2            -0.0323     0.0396    -0.0055 N.3     
   3 C3             0.2984     0.9150     1.1262 C.3     
   4 C4             1.6452     1.5952     0.8700 C.3     
   5 C5             2.7266     0.5254     0.6951 C.3     
   6 C6             2.3342    -0.4021    -0.4583 C.3     
   7 C7            -1.3125    -0.4945     0.1336 C.ar    
   8 C8            -2.0170    -0.3610     1.3275 C.ar    
   9 C9            -3.2821    -0.9039     1.4257 C.ar    
  10 N10           -3.8275    -1.5437     0.4087 N.ar    
  11 C11           -3.1969    -1.6943    -0.7410 C.ar    
  12 C12           -1.9265    -1.1744    -0.9251 C.ar    
  13 N13           -1.2611    -1.3370    -2.1477 N.am    
  14 C14           -1.4447    -2.4594    -2.8708 C.2     
  15 C15           -0.8503    -2.5769    -4.2048 C.2     
  16 O16           -2.1046    -3.3757    -2.4156 O.2     
  17 C17           -1.0853    -3.6518    -5.0341 C.2     
  18 S18           -0.1855    -3.3948    -6.5269 S.3     
  19 C19            0.4267    -1.8664    -5.9054 C.2     
  20 N20           -0.0418    -1.6500    -4.7188 N.2     
  21 C21            1.3384    -0.9595    -6.6347 C.ar    
  22 C22            1.6962    -1.2385    -7.9546 C.ar    
  23 C23            2.5472    -0.3887    -8.6300 C.ar    
  24 C24            3.0463     0.7396    -8.0010 C.ar    
  25 C25            2.6948     1.0217    -6.6917 C.ar    
  26 C26            1.8401     0.1823    -6.0080 C.ar    
  27 N27            1.9856     2.4546     2.0117 N.3     
  28 N28           -1.8848    -4.7393    -4.7457 N.pl3   
  29 Cl29           4.1173     1.8042    -8.8573 Cl      
  30 H30            1.0247    -1.6084     0.7549 H       
  31 H31            0.6786    -1.6742    -0.9897 H       
  32 H32           -0.4763     1.6737     1.2370 H       
  33 H33            0.3588     0.3219     2.0387 H       
  34 H34            1.5814     2.1995    -0.0349 H       
  35 H35            3.6795     1.0042     0.4694 H       
  36 H36            2.8177    -0.0542     1.6137 H       
  37 H37            3.0790    -1.1913    -0.5602 H       
  38 H38            2.2812     0.1708    -1.3841 H       
  39 H39           -1.5789     0.1603     2.1658 H       
  40 H40           -3.8338    -0.8038     2.3488 H       
  41 H41           -3.6789    -2.2249    -1.5488 H       
  42 H42           -0.6684    -0.6417    -2.4736 H       
  43 H43            1.3078    -2.1184    -8.4461 H       
  44 H44            2.8251    -0.6038    -9.6512 H       
  45 H45            3.0872     1.9031    -6.2063 H       
  46 H46            1.5666     0.4033    -4.9868 H       
  47 H47            2.8716     2.9151     1.8661 H       
  48 H48            1.2539     3.1262     2.1896 H       
  49 H49           -2.3422    -4.7922    -3.8919 H       
  50 H50           -1.9894    -5.4507    -5.3968 H       
@<TRIPOS>BOND
   1    1    2 1
   2    1    6 1
   3    1   30 1
   4    1   31 1
   5    2    3 1
   6    2    7 1
   7    3    4 1
   8    3   32 1
   9    3   33 1
  10    4    5 1
  11    4   27 1
  12    4   34 1
  13    5    6 1
  14    5   35 1
  15    5   36 1
  16    6   37 1
  17    6   38 1
  18    7    8 ar
  19    7   12 ar
  20    8    9 ar
  21    8   39 1
  22    9   10 ar
  23    9   40 1
  24   10   11 ar
  25   11   12 ar
  26   11   41 1
  27   12   13 1
  28   13   14 am
  29   13   42 1
  30   14   15 1
  31   14   16 2
  32   15   17 2
  33   15   20 1
  34   17   18 1
  35   17   28 1
  36   18   19 1
  37   19   20 2
  38   19   21 1
  39   21   22 ar
  40   21   26 ar
  41   22   23 ar
  42   22   43 1
  43   23   24 ar
  44   23   44 1
  45   24   25 ar
  46   24   29 1
  47   25   26 ar
  48   25   45 1
  49   26   46 1
  50   27   47 1
  51   27   48 1
  52   28   49 1
  53   28   50 1

#	End of record

