#	Name: ASD02508112
#	Creating user name:	WinNT
#	Creation time:	15. 06. 2019 20:23

#	Modifying user name:	WinNT
#	Modification time:	15. 06. 2019 20:23

#	Program:	/corina/corina34_cracker 3.40 0067  02.08.2006

@<TRIPOS>MOLECULE
ASD02508112
  39   41    0    0    0
SMALL
NO_CHARGES


@<TRIPOS>ATOM
   1 C1             0.7474     2.1383     0.0758 C.ar    
   2 C2             0.4698     0.7675     0.1927 C.ar    
   3 C3             2.0801     2.5173    -0.0877 C.ar    
   4 C4             3.0990     1.5829    -0.1338 C.ar    
   5 C5             2.8038     0.2326    -0.0160 C.ar    
   6 C6             1.4805    -0.1627     0.1467 C.ar    
   7 N7            -0.1503     3.1938     0.0962 N.am    
   8 C8             0.3215     4.4375    -0.0322 C.2     
   9 S9             2.0780     4.2827    -0.2013 S.3     
  10 N10            3.8262    -0.7214    -0.0617 N.am    
  11 S11            3.8684    -1.9440     1.0545 S.o2    
  12 C12            4.0522    -1.1969     2.6397 C.2     
  13 S13            5.5859    -0.7731     3.3892 S.3     
  14 O14           -0.3255     5.4686    -0.0351 O.2     
  15 O15            2.5806    -2.5444     1.0409 O.2     
  16 O16            5.0663    -2.6684     0.8110 O.2     
  17 C17           -1.5864     2.9513     0.2548 C.3     
  18 C18            3.0493    -0.8609     3.4524 C.2     
  19 C19            3.4369    -0.2850     4.6500 C.2     
  20 C20            4.7545    -0.1513     4.8089 C.2     
  21 C21           -2.0866     3.6575     1.5165 C.3     
  22 C22           -2.3332     3.4958    -0.9645 C.3     
  23 C23           -1.9240     2.7046    -2.2084 C.3     
  24 H24           -0.5512     0.4395     0.3207 H       
  25 H25            4.1223     1.9039    -0.2617 H       
  26 H26            1.2445    -1.2125     0.2394 H       
  27 H27            4.5103    -0.6666    -0.7471 H       
  28 H28           -1.7664     1.8799     0.3425 H       
  29 H29            2.0133    -1.0255     3.1954 H       
  30 H30            2.7262     0.0339     5.3981 H       
  31 H31            5.2370     0.2749     5.6761 H       
  32 H32           -3.1550     3.4771     1.6345 H       
  33 H33           -1.5545     3.2696     2.3852 H       
  34 H34           -1.9065     4.7289     1.4288 H       
  35 H35           -3.4072     3.3958    -0.8072 H       
  36 H36           -2.0828     4.5474    -1.1041 H       
  37 H37           -0.8501     2.8046    -2.3657 H       
  38 H38           -2.1744     1.6530    -2.0688 H       
  39 H39           -2.4561     3.0925    -3.0771 H       
@<TRIPOS>BOND
   1    1    2 ar
   2    1    3 ar
   3    1    7 1
   4    2    6 ar
   5    2   24 1
   6    3    4 ar
   7    3    9 1
   8    4    5 ar
   9    4   25 1
  10    5    6 ar
  11    5   10 1
  12    6   26 1
  13    7    8 am
  14    7   17 1
  15    8    9 1
  16    8   14 2
  17   10   11 am
  18   10   27 1
  19   11   12 1
  20   11   15 2
  21   11   16 2
  22   12   13 1
  23   12   18 2
  24   13   20 1
  25   17   21 1
  26   17   22 1
  27   17   28 1
  28   18   19 1
  29   18   29 1
  30   19   20 2
  31   19   30 1
  32   20   31 1
  33   21   32 1
  34   21   33 1
  35   21   34 1
  36   22   23 1
  37   22   35 1
  38   22   36 1
  39   23   37 1
  40   23   38 1
  41   23   39 1

#	End of record

