#	Name: ASD00602009
#	Creating user name:	WinNT
#	Creation time:	15. 06. 2019 18:36

#	Modifying user name:	WinNT
#	Modification time:	15. 06. 2019 18:36

#	Program:	/corina/corina34_cracker 3.40 0067  02.08.2006

@<TRIPOS>MOLECULE
ASD00602009
  80   83    0    0    0
SMALL
NO_CHARGES


@<TRIPOS>ATOM
   1 C1            -0.0187     1.5270     0.0104 C.3     
   2 C2             0.0021    -0.0041     0.0020 C.3     
   3 C3            -1.4335    -0.5293     0.0744 C.3     
   4 N4            -2.0748    -0.0373     1.3005 N.3     
   5 C5            -2.1488     1.4293     1.3093 C.3     
   6 C6            -0.7345     2.0129     1.2737 C.3     
   7 N7             1.3553     2.0353     0.0000 N.am    
   8 C8             1.8117     2.8903    -1.0985 C.3     
   9 C9             1.5481     4.3336    -0.7546 C.2     
  10 C10            2.4383     5.0926    -0.1136 C.2     
  11 S11            1.7825     6.7092     0.1104 S.3     
  12 C12            0.2923     6.2498    -0.7030 C.2     
  13 C13            0.3661     4.9739    -1.0850 C.2     
  14 C14            2.1994     1.7163     1.0012 C.2     
  15 N15            3.4634     2.1840     0.9916 N.am    
  16 O16            1.8206     1.0067     1.9129 O.2     
  17 C17            4.3809     1.8373     2.0798 C.3     
  18 C18           -3.4066    -0.6327     1.4733 C.3     
  19 C19           -3.9902    -0.1952     2.8183 C.3     
  20 C20           -4.3250    -0.1649     0.3425 C.3     
  21 C21           -3.1400    -0.7685     3.9538 C.3     
  22 N22           -3.6988    -0.3496     5.2416 N.am    
  23 C23           -3.1106    -0.7388     6.3901 C.2     
  24 C24           -3.6743    -0.3162     7.6892 C.ar    
  25 O25           -2.1163    -1.4375     6.3573 O.2     
  26 C26           -3.2544     0.8698     8.2921 C.ar    
  27 N27           -3.7562     1.2471     9.4498 N.ar    
  28 C28           -4.6663     0.5292    10.0821 C.ar    
  29 C29           -5.1348    -0.6608     9.5490 C.ar    
  30 C30           -4.6432    -1.0970     8.3327 C.ar    
  31 C31           -5.1281    -2.3859     7.7206 C.3     
  32 C32           -2.2172     1.7265     7.6129 C.3     
  33 Cl33          -5.2852     1.0849    11.6058 Cl      
  34 C34            5.7204     2.4818     1.8320 C.ar    
  35 C35            5.9777     3.7479     2.3274 C.ar    
  36 C36            7.2018     4.3435     2.1047 C.ar    
  37 C37            8.1823     3.6658     1.3773 C.ar    
  38 C38            7.9159     2.3885     0.8803 C.ar    
  39 C39            6.6894     1.8025     1.1149 C.ar    
  40 C40            9.4953     4.2976     1.1344 C.2     
  41 O41            9.7240     5.4091     1.5677 O.2     
  42 O42           10.4391     3.6411     0.4323 O.3     
  43 H43           -0.5477     1.8889    -0.8712 H       
  44 H44            0.4727    -0.3566    -0.9158 H       
  45 H45            0.5655    -0.3651     0.8624 H       
  46 H46           -1.9925    -0.1792    -0.7934 H       
  47 H47           -1.4215    -1.6192     0.0830 H       
  48 H48           -2.7044     1.7701     0.4357 H       
  49 H49           -2.6563     1.7619     2.2148 H       
  50 H50           -0.1827     1.6836     2.1542 H       
  51 H51           -0.7902     3.1015     1.2645 H       
  52 H52            2.8805     2.7431    -1.2536 H       
  53 H53            1.2731     2.6297    -2.0096 H       
  54 H54            3.4125     4.7645     0.2175 H       
  55 H55           -0.5516     6.9023    -0.8716 H       
  56 H56           -0.4385     4.4759    -1.6055 H       
  57 H57            3.7656     2.7501     0.2642 H       
  58 H58            3.9747     2.1957     3.0256 H       
  59 H59            4.5009     0.7548     2.1228 H       
  60 H60           -3.3248    -1.7193     1.4490 H       
  61 H61           -3.9896     0.8932     2.8778 H       
  62 H62           -5.0122    -0.5634     2.9079 H       
  63 H63           -3.9092    -0.4766    -0.6157 H       
  64 H64           -5.3132    -0.6067     0.4707 H       
  65 H65           -4.4068     0.9217     0.3668 H       
  66 H66           -3.1406    -1.8569     3.8943 H       
  67 H67           -2.1180    -0.4003     3.8641 H       
  68 H68           -4.4922     0.2079     5.2678 H       
  69 H69           -5.8792    -1.2392    10.0759 H       
  70 H70           -5.9923    -2.1849     7.0874 H       
  71 H71           -4.3317    -2.8251     7.1198 H       
  72 H72           -5.4111    -3.0801     8.5120 H       
  73 H73           -2.7111     2.4455     6.9593 H       
  74 H74           -1.6363     2.2592     8.3658 H       
  75 H75           -1.5540     1.0945     7.0224 H       
  76 H76            5.2183     4.2710     2.8895 H       
  77 H77            7.4012     5.3319     2.4916 H       
  78 H78            8.6698     1.8590     0.3166 H       
  79 H79            6.4820     0.8145     0.7310 H       
  80 H80           11.2825     4.0950     0.2992 H       
@<TRIPOS>BOND
   1    1    2 1
   2    1    7 1
   3    1    6 1
   4    1   43 1
   5    2    3 1
   6    2   44 1
   7    2   45 1
   8    3    4 1
   9    3   46 1
  10    3   47 1
  11    4    5 1
  12    4   18 1
  13    5    6 1
  14    5   48 1
  15    5   49 1
  16    6   50 1
  17    6   51 1
  18    7    8 1
  19    7   14 am
  20    8    9 1
  21    8   52 1
  22    8   53 1
  23    9   10 2
  24    9   13 1
  25   10   11 1
  26   10   54 1
  27   11   12 1
  28   12   13 2
  29   12   55 1
  30   13   56 1
  31   14   15 am
  32   14   16 2
  33   15   17 1
  34   15   57 1
  35   17   34 1
  36   17   58 1
  37   17   59 1
  38   18   19 1
  39   18   20 1
  40   18   60 1
  41   19   21 1
  42   19   61 1
  43   19   62 1
  44   20   63 1
  45   20   64 1
  46   20   65 1
  47   21   22 1
  48   21   66 1
  49   21   67 1
  50   22   23 am
  51   22   68 1
  52   23   24 1
  53   23   25 2
  54   24   26 ar
  55   24   30 ar
  56   26   27 ar
  57   26   32 1
  58   27   28 ar
  59   28   29 ar
  60   28   33 1
  61   29   30 ar
  62   29   69 1
  63   30   31 1
  64   31   70 1
  65   31   71 1
  66   31   72 1
  67   32   73 1
  68   32   74 1
  69   32   75 1
  70   34   35 ar
  71   34   39 ar
  72   35   36 ar
  73   35   76 1
  74   36   37 ar
  75   36   77 1
  76   37   38 ar
  77   37   40 1
  78   38   39 ar
  79   38   78 1
  80   39   79 1
  81   40   41 2
  82   40   42 1
  83   42   80 1

#	End of record

