#	Name: ASD01882367
#	Creating user name:	WinNT
#	Creation time:	15. 06. 2019 19:44

#	Modifying user name:	WinNT
#	Modification time:	15. 06. 2019 19:44

#	Program:	/corina/corina34_cracker 3.40 0067  02.08.2006

@<TRIPOS>MOLECULE
ASD01882367
  60   65    0    0    0
SMALL
NO_CHARGES


@<TRIPOS>ATOM
   1 C1            -0.3554     0.8401     0.6253 C.3     
   2 O2             0.0168    -0.4846     0.2125 O.3     
   3 C3             1.2591    -0.3155    -0.4960 C.3     
   4 C4             1.9138     0.9093     0.0993 C.ar    
   5 C5             3.2081     1.3858     0.0686 C.ar    
   6 C6             3.5256     2.5636     0.7199 C.ar    
   7 C7             2.5466     3.2630     1.4012 C.ar    
   8 C8             1.2490     2.7859     1.4315 C.ar    
   9 C9             0.9314     1.6112     0.7812 C.ar    
  10 N10           -3.1551     0.4872     0.6750 N.pl3   
  11 C11           -2.5043     0.6557    -0.6314 C.3     
  12 C12           -1.2321     1.4893    -0.4441 C.3     
  13 C13           -1.0995     0.7795     1.9576 C.3     
  14 C14           -2.3712    -0.0591     1.7911 C.3     
  15 C15            2.1521    -1.5413    -0.2941 C.3     
  16 C16            0.9904    -0.0978    -1.9864 C.3     
  17 C17           -6.8191     0.4972     0.4290 C.2     
  18 C18           -5.4787     0.1228     0.2343 C.2     
  19 C19           -4.4898     0.8391     0.8521 C.2     
  20 C20           -4.8324     1.9373     1.6708 C.2     
  21 C21           -6.1243     2.2788     1.8435 C.2     
  22 N22           -7.1177     1.5711     1.2321 N.pl3   
  23 N23           -8.9393     0.7252     0.4532 N.2     
  24 N24           -7.9709     0.0233    -0.0209 N.2     
  25 C25           -8.4775     1.6781     1.2193 C.2     
  26 C26           -5.1346    -1.0531    -0.6432 C.3     
  27 C27           -9.2973     2.7079     1.9531 C.3     
  28 C28           -9.4949     3.9339     1.0593 C.3     
  29 C29          -10.4036     5.0490     1.5805 C.3     
  30 C30           -8.8886     5.2571     1.5309 C.3     
  31 H31            3.9728     0.8392    -0.4632 H       
  32 H32            4.5386     2.9372     0.6966 H       
  33 H33            2.7955     4.1823     1.9105 H       
  34 H34            0.4845     3.3327     1.9635 H       
  35 H35           -2.2444    -0.3212    -1.0390 H       
  36 H36           -3.1813     1.1703    -1.3133 H       
  37 H37           -1.5010     2.4981    -0.1309 H       
  38 H38           -0.6846     1.5340    -1.3855 H       
  39 H39           -0.4587     0.3225     2.7116 H       
  40 H40           -1.3677     1.7885     2.2707 H       
  41 H41           -2.9603    -0.0155     2.7071 H       
  42 H42           -2.1015    -1.0932     1.5765 H       
  43 H43            1.6540    -2.4238    -0.6955 H       
  44 H44            3.0987    -1.3907    -0.8133 H       
  45 H45            2.3400    -1.6827     0.7702 H       
  46 H46            0.5243     0.8766    -2.1331 H       
  47 H47            1.9316    -0.1366    -2.5348 H       
  48 H48            0.3238    -0.8783    -2.3533 H       
  49 H49           -4.0558     2.5057     2.1609 H       
  50 H50           -6.3758     3.1205     2.4718 H       
  51 H51           -6.0508    -1.5572    -0.9508 H       
  52 H52           -4.5985    -0.7034    -1.5255 H       
  53 H53           -4.5057    -1.7490    -0.0881 H       
  54 H54          -10.2685     2.2842     2.2087 H       
  55 H55           -8.7783     3.0030     2.8650 H       
  56 H56           -9.5034     3.7375    -0.0128 H       
  57 H57          -11.0096     5.5866     0.8512 H       
  58 H58          -10.8606     4.9093     2.5602 H       
  59 H59           -8.3489     5.2542     2.4779 H       
  60 H60           -8.4979     5.9315     0.7690 H       
@<TRIPOS>BOND
   1    1    2 1
   2    1    9 1
   3    1   12 1
   4    1   13 1
   5    2    3 1
   6    3    4 1
   7    3   15 1
   8    3   16 1
   9    4    5 ar
  10    4    9 ar
  11    5    6 ar
  12    5   31 1
  13    6    7 ar
  14    6   32 1
  15    7    8 ar
  16    7   33 1
  17    8    9 ar
  18    8   34 1
  19   10   11 1
  20   10   14 1
  21   10   19 1
  22   11   12 1
  23   11   35 1
  24   11   36 1
  25   12   37 1
  26   12   38 1
  27   13   14 1
  28   13   39 1
  29   13   40 1
  30   14   41 1
  31   14   42 1
  32   15   43 1
  33   15   44 1
  34   15   45 1
  35   16   46 1
  36   16   47 1
  37   16   48 1
  38   17   18 1
  39   17   22 1
  40   17   24 2
  41   18   19 2
  42   18   26 1
  43   19   20 1
  44   20   21 2
  45   20   49 1
  46   21   22 1
  47   21   50 1
  48   22   25 1
  49   23   24 1
  50   23   25 2
  51   25   27 1
  52   26   51 1
  53   26   52 1
  54   26   53 1
  55   27   28 1
  56   27   54 1
  57   27   55 1
  58   28   29 1
  59   28   30 1
  60   28   56 1
  61   29   30 1
  62   29   57 1
  63   29   58 1
  64   30   59 1
  65   30   60 1

#	End of record

