#	Name: ASD07300575
#	Creating user name:	WinNT
#	Creation time:	15. 06. 2019 21:10

#	Modifying user name:	WinNT
#	Modification time:	15. 06. 2019 21:10

#	Program:	/corina/corina34_cracker 3.40 0067  02.08.2006

@<TRIPOS>MOLECULE
ASD07300575
  52   55    0    0    0
SMALL
NO_CHARGES


@<TRIPOS>ATOM
   1 C1            -0.0173     1.4132    -0.0101 C.2     
   2 C2             0.0021    -0.0041     0.0020 C.2     
   3 N3             1.1773     2.0868    -0.0173 N.pl3   
   4 N4             1.1570    -0.6390     0.0061 N.2     
   5 C5             2.3155     0.0276    -0.0010 C.2     
   6 C6             2.3478     1.3755    -0.0122 C.2     
   7 N7            -0.9989     2.3008    -0.0112 N.2     
   8 C8            -0.4887     3.5283    -0.0252 C.2     
   9 C9             0.8861     3.4239    -0.0283 C.2     
  10 N10           -1.1861    -0.7177     0.0100 N.pl3   
  11 C11           -1.1896    -2.1845    -0.1073 C.3     
  12 C12           -2.0522    -2.7579     1.0227 C.3     
  13 O13           -3.3301    -2.1170     1.0109 O.3     
  14 C14           -3.2811    -0.7092     1.2547 C.3     
  15 C15           -2.4810    -0.0314     0.1422 C.3     
  16 C16            3.6109    -0.7424     0.0045 C.3     
  17 C17           -1.2771     4.8126    -0.0318 C.3     
  18 C18            2.9644     4.5236     0.8100 C.ar    
  19 C19            1.8561     4.5387    -0.0390 C.ar    
  20 C20            1.6795     5.6277    -0.9008 C.ar    
  21 C21            2.6168     6.6455    -0.8721 C.ar    
  22 C22            3.6877     6.5555    -0.0014 C.ar    
  23 N23            3.8288     5.5168     0.8000 N.ar    
  24 C24            4.7105     7.6617     0.0322 C.3     
  25 C25            4.8461     8.1876     1.4626 C.3     
  26 O26            5.8160     9.2367     1.4944 O.3     
  27 C27            6.0199     9.8005     2.7915 C.3     
  28 H28            3.2955     1.8936    -0.0174 H       
  29 H29           -1.6072    -2.4747    -1.0714 H       
  30 H30           -0.1709    -2.5622    -0.0194 H       
  31 H31           -2.1812    -3.8300     0.8742 H       
  32 H32           -1.5637    -2.5785     1.9805 H       
  33 H33           -4.2941    -0.3074     1.2730 H       
  34 H34           -2.7971    -0.5223     2.2133 H       
  35 H35           -2.3172     1.0161     0.3953 H       
  36 H36           -3.0310    -0.1011    -0.7963 H       
  37 H37            3.3981    -1.8114     0.0142 H       
  38 H38            4.1849    -0.4943    -0.8883 H       
  39 H39            4.1866    -0.4785     0.8916 H       
  40 H40           -1.4606     5.1315     0.9942 H       
  41 H41           -0.7120     5.5831    -0.5563 H       
  42 H42           -2.2289     4.6520    -0.5381 H       
  43 H43            3.1116     3.6924     1.4836 H       
  44 H44            0.8339     5.6723    -1.5711 H       
  45 H45            2.5133     7.5010    -1.5230 H       
  46 H46            5.6726     7.2774    -0.3064 H       
  47 H47            4.3914     8.4715    -0.6239 H       
  48 H48            3.8839     8.5720     1.8011 H       
  49 H49            5.1651     7.3778     2.1187 H       
  50 H50            6.7700    10.5891     2.7311 H       
  51 H51            5.0821    10.2182     3.1577 H       
  52 H52            6.3633     9.0241     3.4753 H       
@<TRIPOS>BOND
   1    1    2 1
   2    1    3 1
   3    1    7 2
   4    2    4 2
   5    2   10 1
   6    3    6 1
   7    3    9 1
   8    4    5 1
   9    5    6 2
  10    5   16 1
  11    6   28 1
  12    7    8 1
  13    8    9 2
  14    8   17 1
  15    9   19 1
  16   10   11 1
  17   10   15 1
  18   11   12 1
  19   11   29 1
  20   11   30 1
  21   12   13 1
  22   12   31 1
  23   12   32 1
  24   13   14 1
  25   14   15 1
  26   14   33 1
  27   14   34 1
  28   15   35 1
  29   15   36 1
  30   16   37 1
  31   16   38 1
  32   16   39 1
  33   17   40 1
  34   17   41 1
  35   17   42 1
  36   18   19 ar
  37   18   23 ar
  38   18   43 1
  39   19   20 ar
  40   20   21 ar
  41   20   44 1
  42   21   22 ar
  43   21   45 1
  44   22   23 ar
  45   22   24 1
  46   24   25 1
  47   24   46 1
  48   24   47 1
  49   25   26 1
  50   25   48 1
  51   25   49 1
  52   26   27 1
  53   27   50 1
  54   27   51 1
  55   27   52 1

#	End of record

