#	Name: ASD03082285
#	Creating user name:	WinNT
#	Creation time:	15. 06. 2019 20:27

#	Modifying user name:	WinNT
#	Modification time:	15. 06. 2019 20:27

#	Program:	/corina/corina34_cracker 3.40 0067  02.08.2006

@<TRIPOS>MOLECULE
ASD03082285
  40   43    0    0    0
SMALL
NO_CHARGES


@<TRIPOS>ATOM
   1 N1             0.2315     1.8177    -0.2076 N.pl3   
   2 N2             0.0222     0.4301    -0.2600 N.2     
   3 C3             1.1760    -0.1410    -0.0016 C.2     
   4 N4             2.0925     0.8054     0.2090 N.2     
   5 C5             1.5385     1.9953     0.0883 C.2     
   6 N6             1.4065    -1.5173     0.0458 N.pl3   
   7 C7             0.3365    -2.4101    -0.0742 C.ar    
   8 C8             0.5538    -3.6957    -0.5527 C.ar    
   9 C9            -0.5043    -4.5756    -0.6704 C.ar    
  10 C10           -1.7809    -4.1769    -0.3117 C.ar    
  11 C11           -1.9999    -2.8956     0.1656 C.ar    
  12 C12           -0.9439    -2.0142     0.2903 C.ar    
  13 C13            2.2258     3.2958     0.2484 C.ar    
  14 C14           -0.7672     2.8652    -0.4348 C.3     
  15 C15            1.4937     4.4607     0.5017 C.ar    
  16 C16            2.1842     5.6519     0.6433 C.ar    
  17 C17            3.5626     5.6526     0.5310 C.ar    
  18 N18            4.2268     4.5381     0.2912 N.ar    
  19 C19            3.6152     3.3799     0.1549 C.ar    
  20 O20           -1.4048     3.1917     0.8018 O.3     
  21 F21           -2.8145    -5.0391    -0.4281 F       
  22 C22            4.3182     6.9474     0.6845 C.3     
  23 C23            4.4620     7.8327    -0.5550 C.3     
  24 C24            3.5200     8.2482     0.5767 C.3     
  25 H25            2.3087    -1.8542     0.1618 H       
  26 H26            1.5492    -4.0070    -0.8329 H       
  27 H27           -0.3359    -5.5753    -1.0428 H       
  28 H28           -2.9964    -2.5868     0.4448 H       
  29 H29           -1.1143    -1.0166     0.6672 H       
  30 H30           -0.2782     3.7525    -0.8368 H       
  31 H31           -1.5131     2.5082    -1.1449 H       
  32 H32            0.4172     4.4313     0.5843 H       
  33 H33            1.6522     6.5711     0.8392 H       
  34 H34            4.1934     2.4890    -0.0409 H       
  35 H35           -2.0797     3.8801     0.7265 H       
  36 H36            5.1519     6.9249     1.3864 H       
  37 H37            5.3902     8.3928    -0.6685 H       
  38 H38            4.0101     7.4786    -1.4816 H       
  39 H39            2.4483     8.1675     0.3946 H       
  40 H40            3.8283     9.0818     1.2077 H       
@<TRIPOS>BOND
   1    1    2 1
   2    1    5 1
   3    1   14 1
   4    2    3 2
   5    3    4 1
   6    3    6 1
   7    4    5 2
   8    5   13 1
   9    6    7 1
  10    6   25 1
  11    7    8 ar
  12    7   12 ar
  13    8    9 ar
  14    8   26 1
  15    9   10 ar
  16    9   27 1
  17   10   11 ar
  18   10   21 1
  19   11   12 ar
  20   11   28 1
  21   12   29 1
  22   13   15 ar
  23   13   19 ar
  24   14   20 1
  25   14   30 1
  26   14   31 1
  27   15   16 ar
  28   15   32 1
  29   16   17 ar
  30   16   33 1
  31   17   18 ar
  32   17   22 1
  33   18   19 ar
  34   19   34 1
  35   20   35 1
  36   22   23 1
  37   22   24 1
  38   22   36 1
  39   23   24 1
  40   23   37 1
  41   23   38 1
  42   24   39 1
  43   24   40 1

#	End of record

