#	Name: ASD01418025
#	Creating user name:	WinNT
#	Creation time:	15. 06. 2019 19:20

#	Modifying user name:	WinNT
#	Modification time:	15. 06. 2019 19:20

#	Program:	/corina/corina34_cracker 3.40 0067  02.08.2006

@<TRIPOS>MOLECULE
ASD01418025
  76   81    0    0    0
SMALL
NO_CHARGES


@<TRIPOS>ATOM
   1 C1            -0.0767     1.6407     0.0537 C.3     
   2 C2            -0.1467     0.1420     0.1559 C.2     
   3 N3             1.3127     2.1003     0.0233 N.pl3   
   4 C4             2.2202     1.8820     1.0364 C.2     
   5 C5             2.1489     0.9198     2.1513 C.ar    
   6 C6             1.2973    -0.1897     2.1824 C.ar    
   7 C7             0.3827    -0.5663     1.1197 C.2     
   8 C8             1.9436     2.7955    -0.9738 C.ar    
   9 C9             3.1281     3.3411    -0.4026 C.ar    
  10 C10            3.2988     2.7074     0.8332 C.2     
  11 C11            1.6879     2.9874    -2.3239 C.ar    
  12 C12            2.5877     3.7982    -3.0426 C.ar    
  13 C13            3.5961     4.5188    -2.4039 C.ar    
  14 C14            3.8910     4.3030    -1.0835 C.ar    
  15 C15            4.4599     2.8977     1.7748 C.3     
  16 C16            5.2478     1.5907     1.8836 C.3     
  17 C17            5.3746     4.0015     1.2401 C.3     
  18 C18            6.5535     4.1947     2.1960 C.3     
  19 C19            7.3413     2.8876     2.3048 C.3     
  20 C20            6.4267     1.7838     2.8396 C.3     
  21 C21            3.0152     1.1495     3.2330 C.ar    
  22 C22            3.0259     0.3039     4.3199 C.ar    
  23 C23            2.1707    -0.7885     4.3615 C.ar    
  24 C24            1.3190    -1.0328     3.3140 C.ar    
  25 C25           -0.7989    -0.5254    -0.9629 C.2     
  26 O26           -1.4486     0.1447    -1.7441 O.2     
  27 N27           -0.7113    -1.8589    -1.1689 N.am    
  28 C28            1.2840     0.1115    -6.1470 C.3     
  29 N29            1.0239     1.2275    -7.0861 N.am    
  30 S30            1.7500     2.6865    -6.7321 S.o2    
  31 O31            3.1278     2.5398    -7.0475 O.2     
  32 O32            0.9223     3.6968    -7.2919 O.2     
  33 N33            1.6578     2.8602    -5.0778 N.am    
  34 C34            2.4998     3.7787    -4.5148 C.2     
  35 O35            3.1482     4.5470    -5.1987 O.2     
  36 C36           -0.0448    -0.5449    -5.7776 C.3     
  37 C37            0.1519    -1.4759    -4.5789 C.3     
  38 C38           -0.8616    -1.1251    -3.4890 C.3     
  39 C39            0.1720     1.0579    -8.2658 C.3     
  40 C40           -1.0471    -2.3126    -2.5392 C.3     
  41 Cl41           4.1116     0.6047     5.6406 Cl      
  42 H42           -0.5797     1.9611    -0.8586 H       
  43 H43           -0.5809     2.0820     0.9135 H       
  44 H44            0.0899    -1.6058     1.1264 H       
  45 H45            0.8338     2.5333    -2.8043 H       
  46 H46            4.1537     5.2587    -2.9589 H       
  47 H47            4.6782     4.8507    -0.5867 H       
  48 H48            4.0869     3.1801     2.7593 H       
  49 H49            4.5962     0.8043     2.2646 H       
  50 H50            5.6208     1.3082     0.8991 H       
  51 H51            5.7476     3.7191     0.2556 H       
  52 H52            4.8133     4.9327     1.1625 H       
  53 H53            7.2051     4.9810     1.8150 H       
  54 H54            6.1804     4.4771     3.1805 H       
  55 H55            7.7143     2.6052     1.3203 H       
  56 H56            8.1812     3.0253     2.9858 H       
  57 H57            6.0536     2.0663     3.8240 H       
  58 H58            6.9879     0.8527     2.9171 H       
  59 H59            3.6812     1.9994     3.2118 H       
  60 H60            2.1758    -1.4461     5.2182 H       
  61 H61            0.6554    -1.8838     3.3558 H       
  62 H62           -0.4468    -2.4756    -0.4685 H       
  63 H63            1.9342    -0.6223    -6.6233 H       
  64 H64            1.7633     0.4963    -5.2468 H       
  65 H65            1.0402     2.3376    -4.5426 H       
  66 H66           -0.7713     0.2265    -5.5220 H       
  67 H67           -0.4129    -1.1206    -6.6268 H       
  68 H68            0.0043    -2.5091    -4.8933 H       
  69 H69            1.1622    -1.3560    -4.1878 H       
  70 H70           -0.5025    -0.2641    -2.9252 H       
  71 H71           -1.8179    -0.8788    -3.9506 H       
  72 H72           -0.8605     1.2904    -8.0047 H       
  73 H73            0.5072     1.7301    -9.0557 H       
  74 H74            0.2353     0.0272    -8.6146 H       
  75 H75           -0.3825    -3.1256    -2.8315 H       
  76 H76           -2.0823    -2.6522    -2.5717 H       
@<TRIPOS>BOND
   1    1    2 1
   2    1    3 1
   3    1   42 1
   4    1   43 1
   5    2   25 1
   6    2    7 2
   7    3    4 1
   8    3    8 1
   9    4    5 1
  10    4   10 2
  11    5    6 ar
  12    5   21 ar
  13    6    7 1
  14    6   24 ar
  15    7   44 1
  16    8    9 ar
  17    8   11 ar
  18    9   10 1
  19    9   14 ar
  20   10   15 1
  21   11   12 ar
  22   11   45 1
  23   12   13 ar
  24   12   34 1
  25   13   14 ar
  26   13   46 1
  27   14   47 1
  28   15   16 1
  29   15   17 1
  30   15   48 1
  31   16   20 1
  32   16   49 1
  33   16   50 1
  34   17   18 1
  35   17   51 1
  36   17   52 1
  37   18   19 1
  38   18   53 1
  39   18   54 1
  40   19   20 1
  41   19   55 1
  42   19   56 1
  43   20   57 1
  44   20   58 1
  45   21   22 ar
  46   21   59 1
  47   22   23 ar
  48   22   41 1
  49   23   24 ar
  50   23   60 1
  51   24   61 1
  52   25   26 2
  53   25   27 am
  54   27   40 1
  55   27   62 1
  56   28   29 1
  57   28   36 1
  58   28   63 1
  59   28   64 1
  60   29   30 am
  61   29   39 1
  62   30   31 2
  63   30   32 2
  64   30   33 am
  65   33   34 am
  66   33   65 1
  67   34   35 2
  68   36   37 1
  69   36   66 1
  70   36   67 1
  71   37   38 1
  72   37   68 1
  73   37   69 1
  74   38   40 1
  75   38   70 1
  76   38   71 1
  77   39   72 1
  78   39   73 1
  79   39   74 1
  80   40   75 1
  81   40   76 1

#	End of record

