#	Name: ASD01840544
#	Creating user name:	WinNT
#	Creation time:	15. 06. 2019 19:37

#	Modifying user name:	WinNT
#	Modification time:	15. 06. 2019 19:37

#	Program:	/corina/corina34_cracker 3.40 0067  02.08.2006

@<TRIPOS>MOLECULE
ASD01840544
  57   61    0    0    0
SMALL
NO_CHARGES


@<TRIPOS>ATOM
   1 C1            -0.0184     1.5028     0.0103 C.3     
   2 C2             0.0021    -0.0041     0.0020 C.ar    
   3 N3             0.0054    -0.6491    -1.1490 N.ar    
   4 C4             0.0236    -1.9723    -1.2051 C.ar    
   5 N5             0.0269    -2.6106    -2.4399 N.pl3   
   6 C6             0.0104    -1.8201    -3.6732 C.3     
   7 C7             0.0180    -2.7591    -4.8811 C.3     
   8 C8            -1.2025    -2.7337    -5.8034 C.3     
   9 C9             0.1212    -2.1239    -6.2692 C.3     
  10 C10            0.0398    -2.7280    -0.0369 C.ar    
  11 C11            0.0617    -4.2146     0.2030 C.3     
  12 N12            0.0718    -4.4319     1.6539 N.am    
  13 C13            0.0564    -3.1061     2.2824 C.3     
  14 C14            0.0367    -2.0798     1.1818 C.ar    
  15 C15            0.0228    -0.6924     1.1994 C.ar    
  16 C16            0.0245     0.0541     2.5085 C.3     
  17 C17            0.0910    -5.6211     2.2879 C.2     
  18 O18            0.0971    -5.6621     3.5000 O.2     
  19 C19            0.1050    -6.8998     1.4906 C.3     
  20 C20            0.1258    -8.0956     2.4449 C.3     
  21 C21           -1.2743    -8.5727     2.8709 C.3     
  22 N22           -0.7539    -9.9456     2.6879 N.3     
  23 C23            0.2641    -9.4537     1.7335 C.3     
  24 C24           -1.6853   -10.7488     2.0502 C.ar    
  25 C25           -1.4008   -12.0892     1.7821 C.ar    
  26 C26           -2.3622   -12.8484     1.1442 C.ar    
  27 N27           -3.5144   -12.2848     0.8099 N.ar    
  28 C28           -3.7527   -11.0165     1.0770 C.ar    
  29 N29           -2.8668   -10.2569     1.6886 N.ar    
  30 H30            1.0042     1.8801     0.0026 H       
  31 H31           -0.5455     1.8639    -0.8728 H       
  32 H32           -0.5286     1.8543     0.9071 H       
  33 H33            0.0402    -3.5795    -2.4850 H       
  34 H34           -0.8884    -1.2038    -3.6977 H       
  35 H35            0.8914    -1.1791    -3.7057 H       
  36 H36            0.5138    -3.7177    -4.7282 H       
  37 H37           -1.5099    -3.6757    -6.2574 H       
  38 H38           -2.0108    -2.0479    -5.5497 H       
  39 H39            0.1837    -1.0369    -6.3218 H       
  40 H40            0.6846    -2.6647    -7.0295 H       
  41 H41           -0.8263    -4.6723    -0.2329 H       
  42 H42            0.9578    -4.6474    -0.2417 H       
  43 H43           -0.8344    -3.0009     2.9017 H       
  44 H44            0.9499    -2.9761     2.8930 H       
  45 H45           -1.0026     0.2198     2.8337 H       
  46 H46            0.5536    -0.5318     3.2602 H       
  47 H47            0.5238     1.0143     2.3786 H       
  48 H48           -0.7872    -6.9486     0.8664 H       
  49 H49            0.9925    -6.9241     0.8583 H       
  50 H50            0.8180    -7.9634     3.2765 H       
  51 H51           -1.5248    -8.3320     3.9041 H       
  52 H52           -2.0626    -8.3045     2.1675 H       
  53 H53           -0.0742    -9.4431     0.6974 H       
  54 H54            1.2429    -9.9169     1.8579 H       
  55 H55           -0.4527   -12.5214     2.0660 H       
  56 H56           -2.1773   -13.8886     0.9201 H       
  57 H57           -4.7023   -10.5890     0.7907 H       
@<TRIPOS>BOND
   1    1    2 1
   2    1   30 1
   3    1   31 1
   4    1   32 1
   5    2   15 ar
   6    2    3 ar
   7    3    4 ar
   8    4    5 1
   9    4   10 ar
  10    5    6 1
  11    5   33 1
  12    6    7 1
  13    6   34 1
  14    6   35 1
  15    7    9 1
  16    7    8 1
  17    7   36 1
  18    8    9 1
  19    8   37 1
  20    8   38 1
  21    9   39 1
  22    9   40 1
  23   10   14 ar
  24   10   11 1
  25   11   12 1
  26   11   41 1
  27   11   42 1
  28   12   13 1
  29   12   17 am
  30   13   14 1
  31   13   43 1
  32   13   44 1
  33   14   15 ar
  34   15   16 1
  35   16   45 1
  36   16   46 1
  37   16   47 1
  38   17   18 2
  39   17   19 1
  40   19   20 1
  41   19   48 1
  42   19   49 1
  43   20   23 1
  44   20   21 1
  45   20   50 1
  46   21   22 1
  47   21   51 1
  48   21   52 1
  49   22   23 1
  50   22   24 1
  51   23   53 1
  52   23   54 1
  53   24   29 ar
  54   24   25 ar
  55   25   26 ar
  56   25   55 1
  57   26   27 ar
  58   26   56 1
  59   27   28 ar
  60   28   29 ar
  61   28   57 1

#	End of record

