#	Name: ASD05740023
#	Creating user name:	WinNT
#	Creation time:	15. 06. 2019 21:02

#	Modifying user name:	WinNT
#	Modification time:	15. 06. 2019 21:02

#	Program:	/corina/corina34_cracker 3.40 0067  02.08.2006

@<TRIPOS>MOLECULE
ASD05740023
  51   52    0    0    0
SMALL
NO_CHARGES


@<TRIPOS>ATOM
   1 C1            -0.3486     1.6725     0.0363 C.3     
   2 C2             1.5486     7.6508     6.0413 C.ar    
   3 N3             0.6002     7.2110     6.8619 N.ar    
   4 C4             0.3705     5.9274     7.0417 C.ar    
   5 C5             1.1337     4.9767     6.3602 C.ar    
   6 C6             2.1500     5.4071     5.4802 C.ar    
   7 C7             2.3478     6.7697     5.3220 C.ar    
   8 C8             0.9088     3.5421     6.5338 C.2     
   9 C9             1.6955     2.6821     5.8340 C.2     
  10 C10            2.6922     3.1829     4.9721 C.2     
  11 O11            2.8943     4.5022     4.8160 O.3     
  12 C12            1.5024     1.1946     5.9797 C.3     
  13 C13            0.5992     0.6953     4.8816 C.ar    
  14 C14           -0.7584     0.5608     5.1108 C.ar    
  15 O15            3.3885     2.3991     4.3523 O.2     
  16 C16            0.2919    -0.0847     2.6321 C.ar    
  17 C17           -1.0687    -0.2228     2.8687 C.ar    
  18 C18           -1.5903     0.1032     4.1062 C.ar    
  19 S19            1.7932     9.3859     5.8560 S.3     
  20 N20            0.8226    -0.4138     1.3808 N.am    
  21 S21           -0.0520    -0.1168     0.0063 S.o2    
  22 O22           -1.2668    -0.8271     0.2037 O.2     
  23 O23            0.8324    -0.4580    -1.0523 O.2     
  24 C24           -0.1633     3.0319     7.4619 C.3     
  25 C25            1.1272     0.3765     3.6444 C.ar    
  26 F26            2.4522     0.5135     3.4186 F       
  27 C27            0.5168    10.0051     6.9800 C.3     
  28 H28            0.6057     2.1991     0.0331 H       
  29 H29           -0.9252     1.9600    -0.8429 H       
  30 H30           -0.9046     1.9336     0.9368 H       
  31 H31           -0.4093     5.6089     7.7176 H       
  32 H32            3.1150     7.1403     4.6582 H       
  33 H33            2.4684     0.6944     5.9113 H       
  34 H34            1.0499     0.9801     6.9479 H       
  35 H35           -1.1692     0.8137     6.0771 H       
  36 H36           -1.7194    -0.5844     2.0862 H       
  37 H37           -2.6497    -0.0001     4.2889 H       
  38 H38            1.7031    -0.8160     1.3181 H       
  39 H39           -0.6763     3.8759     7.9232 H       
  40 H40           -0.8799     2.4361     6.8966 H       
  41 H41            0.2908     2.4149     8.2373 H       
  42 H42            0.7094     9.6357     7.9873 H       
  43 H43            0.5332    11.0950     6.9834 H       
  44 H44           -0.4609     9.6574     6.6463 H       
  45 C45            8.9157    18.7643    15.1056 C.3     
  46 N46            8.9355    17.2994    15.0975 N.2     
  47 C47            9.4762    16.6869    14.1515 C.1     
  48 O48            9.9988    16.0950    13.2373 O.2     
  49 H49            9.9383    19.1416    15.0978 H       
  50 H50            8.3885    19.1254    14.2225 H       
  51 H51            8.4055    19.1158    16.0024 H       
@<TRIPOS>BOND
   1    1   21 1
   2    1   28 1
   3    1   29 1
   4    1   30 1
   5    2    3 ar
   6    2   19 1
   7    2    7 ar
   8    3    4 ar
   9    4    5 ar
  10    4   31 1
  11    5    6 ar
  12    5    8 1
  13    6    7 ar
  14    6   11 1
  15    7   32 1
  16    8    9 2
  17    8   24 1
  18    9   10 1
  19    9   12 1
  20   10   11 1
  21   10   15 2
  22   12   13 1
  23   12   33 1
  24   12   34 1
  25   13   14 ar
  26   13   25 ar
  27   14   18 ar
  28   14   35 1
  29   16   17 ar
  30   16   20 1
  31   16   25 ar
  32   17   18 ar
  33   17   36 1
  34   18   37 1
  35   19   27 1
  36   20   21 am
  37   20   38 1
  38   21   22 2
  39   21   23 2
  40   24   39 1
  41   24   40 1
  42   24   41 1
  43   25   26 1
  44   27   42 1
  45   27   43 1
  46   27   44 1
  47   45   46 1
  48   45   49 1
  49   45   50 1
  50   45   51 1
  51   46   47 2
  52   47   48 2

#	End of record

