#	Name: ASD01917035
#	Creating user name:	WinNT
#	Creation time:	15. 06. 2019 20:08

#	Modifying user name:	WinNT
#	Modification time:	15. 06. 2019 20:08

#	Program:	/corina/corina34_cracker 3.40 0067  02.08.2006

@<TRIPOS>MOLECULE
ASD01917035
  47   49    0    0    0
SMALL
NO_CHARGES


@<TRIPOS>ATOM
   1 C1            -0.0187     1.5258     0.0104 C.3     
   2 C2             0.0021    -0.0041     0.0020 C.3     
   3 C3             0.7182    -0.4975    -1.2568 C.3     
   4 C4             2.1536     0.0321    -1.2676 C.3     
   5 C5             2.1328     1.5619    -1.2592 C.3     
   6 C6             1.4167     2.0553    -0.0004 C.3     
   7 C7             3.5467     2.0836    -1.2699 C.2     
   8 N8             4.4569     1.8463    -0.3627 N.2     
   9 C9             5.5977     2.4672    -0.6919 C.2     
  10 N10            5.4159     3.1103    -1.8244 N.2     
  11 N11            4.0896     2.8683    -2.2178 N.pl3   
  12 C12            3.4254     3.3775    -3.4202 C.3     
  13 C13            3.6216     2.4034    -4.5532 C.2     
  14 O14            3.0964     2.6638    -5.7607 O.3     
  15 O15            4.2516     1.3880    -4.3746 O.2     
  16 C16            3.3252     1.6811    -6.8049 C.3     
  17 C17            6.8573     2.4348     0.0918 C.ar    
  18 C18            7.9793     3.1263    -0.3612 C.ar    
  19 C19            6.9189     1.7175     1.2851 C.ar    
  20 C20            8.0909     1.6892     2.0113 C.ar    
  21 C21            9.2087     2.3743     1.5547 C.ar    
  22 C22            9.1486     3.0944     0.3693 C.ar    
  23 O23           10.3621     2.3447     2.2723 O.3     
  24 C24           11.4735     3.0716     1.7445 C.3     
  25 H25           -0.5459     1.8868    -0.8726 H       
  26 H26           -0.5289     1.8773     0.9072 H       
  27 H27            0.5293    -0.3651     0.8851 H       
  28 H28           -1.0205    -0.3814     0.0098 H       
  29 H29            0.7330    -1.5874    -1.2628 H       
  30 H30            0.1910    -0.1364    -2.1398 H       
  31 H31            2.6808    -0.3290    -0.3846 H       
  32 H32            2.6638    -0.3194    -2.1644 H       
  33 H33            1.6057     1.9230    -2.1423 H       
  34 H34            1.4019     3.1452     0.0056 H       
  35 H35            1.9439     1.6943     0.8826 H       
  36 H36            2.3599     3.4966    -3.2238 H       
  37 H37            3.8548     4.3419    -3.6917 H       
  38 H38            4.3968     1.5688    -6.9696 H       
  39 H39            2.9018     0.7235    -6.5017 H       
  40 H40            2.8487     2.0134    -7.7272 H       
  41 H41            7.9333     3.6863    -1.2835 H       
  42 H42            6.0495     1.1847     1.6410 H       
  43 H43            8.1391     1.1339     2.9363 H       
  44 H44           10.0199     3.6261     0.0163 H       
  45 H45           11.7304     2.6787     0.7607 H       
  46 H46           11.2098     4.1256     1.6573 H       
  47 H47           12.3279     2.9649     2.4128 H       
@<TRIPOS>BOND
   1    1    2 1
   2    1    6 1
   3    1   25 1
   4    1   26 1
   5    2    3 1
   6    2   27 1
   7    2   28 1
   8    3    4 1
   9    3   29 1
  10    3   30 1
  11    4    5 1
  12    4   31 1
  13    4   32 1
  14    5    6 1
  15    5    7 1
  16    5   33 1
  17    6   34 1
  18    6   35 1
  19    7    8 2
  20    7   11 1
  21    8    9 1
  22    9   10 2
  23    9   17 1
  24   10   11 1
  25   11   12 1
  26   12   13 1
  27   12   36 1
  28   12   37 1
  29   13   14 1
  30   13   15 2
  31   14   16 1
  32   16   38 1
  33   16   39 1
  34   16   40 1
  35   17   18 ar
  36   17   19 ar
  37   18   22 ar
  38   18   41 1
  39   19   20 ar
  40   19   42 1
  41   20   21 ar
  42   20   43 1
  43   21   22 ar
  44   21   23 1
  45   22   44 1
  46   23   24 1
  47   24   45 1
  48   24   46 1
  49   24   47 1

#	End of record

