#	Name: ASD01884040
#	Creating user name:	WinNT
#	Creation time:	15. 06. 2019 19:47

#	Modifying user name:	WinNT
#	Modification time:	15. 06. 2019 19:47

#	Program:	/corina/corina34_cracker 3.40 0067  02.08.2006

@<TRIPOS>MOLECULE
ASD01884040
  45   48    0    0    0
SMALL
NO_CHARGES


@<TRIPOS>ATOM
   1 C1            -0.1032     1.4191     0.2352 C.2     
   2 C2            -0.0324    -0.0475     0.2484 C.2     
   3 N3             1.0049     2.1915    -0.0275 N.pl3   
   4 N4             1.2084    -0.5898     0.1972 N.am    
   5 C5             2.4045     0.2275     0.3700 C.3     
   6 C6             2.3014     1.5767    -0.3396 C.3     
   7 N7             0.6854     3.4243     0.0412 N.2     
   8 C8            -0.5867     3.5728     0.3191 C.2     
   9 C9            -1.1517     2.2856     0.4579 C.2     
  10 O10           -1.0328    -0.7378     0.3028 O.2     
  11 C11            1.3454    -1.9633    -0.0258 C.ar    
  12 C12            1.8417    -2.7853     0.9778 C.ar    
  13 C13            1.9758    -4.1415     0.7543 C.ar    
  14 C14            1.6165    -4.6814    -0.4671 C.ar    
  15 C15            1.1224    -3.8658    -1.4686 C.ar    
  16 C16            0.9800    -2.5097    -1.2495 C.ar    
  17 C17            1.7642    -6.1618    -0.7074 C.3     
  18 F18            0.5842    -6.8147    -0.3351 F       
  19 F19            2.0158    -6.3911    -2.0644 F       
  20 F20            2.8296    -6.6538     0.0541 F       
  21 C21           -4.5358     2.1901     2.0962 C.ar    
  22 C22           -3.2245     2.5380     1.8438 C.ar    
  23 C23           -2.5602     1.9429     0.7671 C.ar    
  24 C24           -3.2614     1.0156    -0.0105 C.ar    
  25 C25           -4.5710     0.7262     0.3122 C.ar    
  26 N26           -5.1609     1.3104     1.3377 N.ar    
  27 C27           -5.2616     2.8193     3.2573 C.3     
  28 C28            3.4294     2.4928     0.1389 C.3     
  29 H29            2.5623     0.4003     1.4346 H       
  30 H30            3.2623    -0.3150    -0.0277 H       
  31 H31            2.3841     1.4288    -1.4164 H       
  32 H32           -1.1092     4.5119     0.4261 H       
  33 H33            2.1229    -2.3643     1.9318 H       
  34 H34            2.3621    -4.7812     1.5341 H       
  35 H35            0.8430    -4.2905    -2.4214 H       
  36 H36            0.5892    -1.8740    -2.0302 H       
  37 H37           -2.7189     3.2593     2.4687 H       
  38 H38           -2.7848     0.5337    -0.8512 H       
  39 H39           -5.1207     0.0115    -0.2823 H       
  40 H40           -5.7563     3.7320     2.9251 H       
  41 H41           -6.0059     2.1219     3.6416 H       
  42 H42           -4.5475     3.0593     4.0452 H       
  43 H43            3.3468     2.6389     1.2159 H       
  44 H44            4.3916     2.0361    -0.0930 H       
  45 H45            3.3537     3.4563    -0.3653 H       
@<TRIPOS>BOND
   1    1    2 1
   2    1    3 1
   3    1    9 2
   4    2    4 am
   5    2   10 2
   6    3    6 1
   7    3    7 1
   8    4    5 1
   9    4   11 1
  10    5    6 1
  11    5   29 1
  12    5   30 1
  13    6   28 1
  14    6   31 1
  15    7    8 2
  16    8    9 1
  17    8   32 1
  18    9   23 1
  19   11   12 ar
  20   11   16 ar
  21   12   13 ar
  22   12   33 1
  23   13   14 ar
  24   13   34 1
  25   14   15 ar
  26   14   17 1
  27   15   16 ar
  28   15   35 1
  29   16   36 1
  30   17   18 1
  31   17   19 1
  32   17   20 1
  33   21   22 ar
  34   21   26 ar
  35   21   27 1
  36   22   23 ar
  37   22   37 1
  38   23   24 ar
  39   24   25 ar
  40   24   38 1
  41   25   26 ar
  42   25   39 1
  43   27   40 1
  44   27   41 1
  45   27   42 1
  46   28   43 1
  47   28   44 1
  48   28   45 1

#	End of record

