#	Name: ASD01478008
#	Creating user name:	WinNT
#	Creation time:	15. 06. 2019 19:21

#	Modifying user name:	WinNT
#	Modification time:	15. 06. 2019 19:21

#	Program:	/corina/corina34_cracker 3.40 0067  02.08.2006

@<TRIPOS>MOLECULE
ASD01478008
  79   81    0    0    0
SMALL
NO_CHARGES


@<TRIPOS>ATOM
   1 C1             1.5798     1.2489     1.9358 C.3     
   2 C2             3.0139     2.0158     0.1890 C.2     
   3 O3             2.8053     1.9038     1.5144 O.3     
   4 N4             4.1317     2.6132    -0.2692 N.am    
   5 O5             2.1942     1.5783    -0.5942 O.2     
   6 C6             3.6513     3.9867    -2.2350 C.3     
   7 C7             4.3587     2.7351    -1.7114 C.3     
   8 C8             5.8601     2.8462    -1.9838 C.3     
   9 C9             6.1057     2.8480    -3.4940 C.3     
  10 N10            7.5467     2.8063    -3.7545 N.am    
  11 S11            8.2969     1.3557    -4.0288 S.o2    
  12 C12            8.2397     1.0591    -5.7647 C.ar    
  13 C13            9.2647     1.5094    -6.5760 C.ar    
  14 C14            9.2222     1.2781    -7.9373 C.ar    
  15 C15            8.1498     0.5932    -8.4902 C.ar    
  16 C16            7.1226     0.1424    -7.6740 C.ar    
  17 C17            7.1726     0.3714    -6.3125 C.ar    
  18 O18            9.6663     1.5434    -3.6988 O.2     
  19 O19            7.4810     0.3615    -3.4247 O.2     
  20 C20            8.3241     4.0480    -3.7722 C.3     
  21 C21            7.8474     4.9316    -4.9267 C.3     
  22 C22            8.5525     6.2876    -4.8557 C.3     
  23 C23            8.1782     4.2539    -6.2579 C.3     
  24 O24            6.3581     4.0606    -1.4188 O.3     
  25 C25            1.8284    -0.1831     2.0734 C.3     
  26 O26            0.6456    -0.9028     2.4771 O.3     
  27 C27            0.4378    -0.8529     3.8603 C.3     
  28 C28           -0.5658     0.2462     4.2694 C.3     
  29 C29           -0.3477     1.5424     3.4553 C.3     
  30 C30            1.1050     1.8761     3.2629 C.3     
  31 O31           -1.8951    -0.2281     4.0454 O.3     
  32 C32            2.1613     3.8243    -2.0782 C.ar    
  33 C33            1.5392     4.2406    -0.9160 C.ar    
  34 C34            0.1725     4.0916    -0.7722 C.ar    
  35 C35           -0.5722     3.5268    -1.7906 C.ar    
  36 C36            0.0498     3.1113    -2.9532 C.ar    
  37 C37            1.4159     3.2643    -3.0988 C.ar    
  38 O38            8.1054     0.3648    -9.8291 O.3     
  39 C39            6.9712    -0.3466   -10.3286 C.3     
  40 H40            0.8141     1.4053     1.1760 H       
  41 H41            4.7860     2.9625     0.3559 H       
  42 H42            3.9838     4.8561    -1.6677 H       
  43 H43            3.8927     4.1264    -3.2887 H       
  44 H44            3.9617     1.8550    -2.2173 H       
  45 H45            6.3749     1.9978    -1.5330 H       
  46 H46            5.6303     1.9746    -3.9404 H       
  47 H47            5.6837     3.7537    -3.9296 H       
  48 H48           10.0992     2.0428    -6.1452 H       
  49 H49           10.0229     1.6304    -8.5707 H       
  50 H50            6.2867    -0.3910    -8.1020 H       
  51 H51            6.3731     0.0206    -5.6767 H       
  52 H52            8.1860     4.5766    -2.8290 H       
  53 H53            9.3801     3.8135    -3.9061 H       
  54 H54            6.7699     5.0780    -4.8513 H       
  55 H55            9.6300     6.1413    -4.9311 H       
  56 H56            8.2129     6.9172    -5.6782 H       
  57 H57            8.3169     6.7705    -3.9073 H       
  58 H58            9.2563     4.1138    -6.3363 H       
  59 H59            7.6815     3.2848    -6.3055 H       
  60 H60            7.8324     4.8802    -7.0803 H       
  61 H61            6.0094     4.8604    -1.8356 H       
  62 H62            2.1729    -0.5761     1.1169 H       
  63 H63            2.6083    -0.3370     2.8192 H       
  64 H64            0.0586    -1.8185     4.1948 H       
  65 H65            1.3909    -0.6609     4.3531 H       
  66 H66           -0.4410     0.4660     5.3296 H       
  67 H67           -0.8134     1.4249     2.4768 H       
  68 H68           -0.8319     2.3690     3.9750 H       
  69 H69            1.6870     1.4686     4.0895 H       
  70 H70            1.2298     2.9582     3.2218 H       
  71 H71           -2.1183    -1.0242     4.5468 H       
  72 H72            2.1210     4.6818    -0.1203 H       
  73 H73           -0.3135     4.4161     0.1361 H       
  74 H74           -1.6399     3.4097    -1.6780 H       
  75 H75           -0.5320     2.6697    -3.7487 H       
  76 H76            1.9013     2.9432    -4.0085 H       
  77 H77            6.9251    -1.3305    -9.8620 H       
  78 H78            6.0627     0.2089   -10.0960 H       
  79 H79            7.0608    -0.4606   -11.4089 H       
@<TRIPOS>BOND
   1    1   25 1
   2    1    3 1
   3    1   30 1
   4    1   40 1
   5    2    3 1
   6    2    4 am
   7    2    5 2
   8    4    7 1
   9    4   41 1
  10    6    7 1
  11    6   32 1
  12    6   42 1
  13    6   43 1
  14    7    8 1
  15    7   44 1
  16    8    9 1
  17    8   24 1
  18    8   45 1
  19    9   10 1
  20    9   46 1
  21    9   47 1
  22   10   11 am
  23   10   20 1
  24   11   12 1
  25   11   18 2
  26   11   19 2
  27   12   13 ar
  28   12   17 ar
  29   13   14 ar
  30   13   48 1
  31   14   15 ar
  32   14   49 1
  33   15   16 ar
  34   15   38 1
  35   16   17 ar
  36   16   50 1
  37   17   51 1
  38   20   21 1
  39   20   52 1
  40   20   53 1
  41   21   22 1
  42   21   23 1
  43   21   54 1
  44   22   55 1
  45   22   56 1
  46   22   57 1
  47   23   58 1
  48   23   59 1
  49   23   60 1
  50   24   61 1
  51   25   26 1
  52   25   62 1
  53   25   63 1
  54   26   27 1
  55   27   28 1
  56   27   64 1
  57   27   65 1
  58   28   29 1
  59   28   31 1
  60   28   66 1
  61   29   30 1
  62   29   67 1
  63   29   68 1
  64   30   69 1
  65   30   70 1
  66   31   71 1
  67   32   33 ar
  68   32   37 ar
  69   33   34 ar
  70   33   72 1
  71   34   35 ar
  72   34   73 1
  73   35   36 ar
  74   35   74 1
  75   36   37 ar
  76   36   75 1
  77   37   76 1
  78   38   39 1
  79   39   77 1
  80   39   78 1
  81   39   79 1

#	End of record

