#	Name: ASD01200070
#	Creating user name:	WinNT
#	Creation time:	15. 06. 2019 19:08

#	Modifying user name:	WinNT
#	Modification time:	15. 06. 2019 19:08

#	Program:	/corina/corina34_cracker 3.40 0067  02.08.2006

@<TRIPOS>MOLECULE
ASD01200070
  51   54    0    0    0
SMALL
NO_CHARGES


@<TRIPOS>ATOM
   1 C1             0.2811     0.8248     0.4633 C.ar    
   2 C2            -0.1054     0.4259    -0.8026 C.ar    
   3 C3             0.7386     0.6276    -1.8786 C.ar    
   4 C4             1.9689     1.2286    -1.6888 C.ar    
   5 C5             2.3550     1.6283    -0.4231 C.ar    
   6 C6             1.5116     1.4253     0.6532 C.ar    
   7 S7            -1.6736    -0.3402    -1.0444 S.o2    
   8 C8             4.8717     1.5644    -0.8272 C.2     
   9 N9             5.2351     0.3520    -0.3642 N.am    
  10 N10            6.6752    -1.5270    -0.6327 N.2     
  11 C11            6.2502    -0.3574    -0.9956 C.2     
  12 S12            7.1194     0.1854    -2.3640 S.3     
  13 C13            8.0679    -1.2992    -2.3636 C.2     
  14 C14            7.6496    -2.0570    -1.3480 C.2     
  15 O15           -1.4987    -1.1369    -2.2080 O.2     
  16 O16           -1.9712    -0.9337     0.2119 O.2     
  17 C17           -2.8037     1.0383    -1.3809 C.3     
  18 C18            3.6965     2.2831    -0.2161 C.3     
  19 O19            5.4905     2.0771    -1.7356 O.2     
  20 C20            2.6372     6.0535    -0.1282 C.3     
  21 C21            1.3151     6.8009    -0.3136 C.3     
  22 C22            0.8053     6.5891    -1.7405 C.3     
  23 C23            0.5856     5.0951    -1.9871 C.3     
  24 C24            1.9077     4.3478    -1.8017 C.3     
  25 C25            2.4175     4.5596    -0.3747 C.3     
  26 C26            3.9274     3.0181     1.1058 C.3     
  27 C27            3.7396     3.8122    -0.1893 C.3     
  28 H28            4.6182     4.2985    -0.6134 H       
  29 H29           -0.3802     0.6712     1.3033 H       
  30 H30            0.4369     0.3154    -2.8675 H       
  31 H31            2.6286     1.3856    -2.5293 H       
  32 H32            1.8131     1.7379     1.6420 H       
  33 H33            4.7883    -0.0256     0.4095 H       
  34 H34            8.8510    -1.5518    -3.0631 H       
  35 H35            8.0741    -3.0257    -1.1291 H       
  36 H36           -2.4703     1.5726    -2.2706 H       
  37 H37           -3.8096     0.6518    -1.5449 H       
  38 H38           -2.8103     1.7189    -0.5295 H       
  39 H39            3.3724     6.4345    -0.8370 H       
  40 H40            3.0004     6.2045     0.8884 H       
  41 H41            0.5799     6.4200     0.3952 H       
  42 H42            1.4717     7.8652    -0.1380 H       
  43 H43           -0.1366     7.1215    -1.8726 H       
  44 H44            1.5405     6.9700    -2.4494 H       
  45 H45           -0.1497     4.7142    -1.2783 H       
  46 H46            0.2224     4.9442    -3.0036 H       
  47 H47            1.7511     3.2835    -1.9773 H       
  48 H48            2.6429     4.7287    -2.5105 H       
  49 H49            1.6823     4.1787     0.3341 H       
  50 H50            3.1090     3.0281     1.8257 H       
  51 H51            4.9294     2.9822     1.5332 H       
@<TRIPOS>BOND
   1    1    2 ar
   2    1    6 ar
   3    1   29 1
   4    2    3 ar
   5    2    7 1
   6    3    4 ar
   7    3   30 1
   8    4    5 ar
   9    4   31 1
  10    5    6 ar
  11    5   18 1
  12    6   32 1
  13    7   15 2
  14    7   16 2
  15    7   17 1
  16    8    9 am
  17    8   19 2
  18    8   18 1
  19    9   11 1
  20    9   33 1
  21   10   11 2
  22   10   14 1
  23   11   12 1
  24   12   13 1
  25   13   14 2
  26   13   34 1
  27   14   35 1
  28   17   36 1
  29   17   37 1
  30   17   38 1
  31   18   26 1
  32   18   27 1
  33   20   21 1
  34   20   25 1
  35   20   39 1
  36   20   40 1
  37   21   22 1
  38   21   41 1
  39   21   42 1
  40   22   23 1
  41   22   43 1
  42   22   44 1
  43   23   24 1
  44   23   45 1
  45   23   46 1
  46   24   25 1
  47   24   47 1
  48   24   48 1
  49   25   27 1
  50   25   49 1
  51   26   27 1
  52   26   50 1
  53   26   51 1
  54   27   28 1

#	End of record

