#	Name: ASD00431109
#	Creating user name:	WinNT
#	Creation time:	15. 06. 2019 18:35

#	Modifying user name:	WinNT
#	Modification time:	15. 06. 2019 18:35

#	Program:	/corina/corina34_cracker 3.40 0067  02.08.2006

@<TRIPOS>MOLECULE
ASD00431109
  47   49    0    0    0
SMALL
NO_CHARGES


@<TRIPOS>ATOM
   1 C1             0.4705     0.7755     1.2645 C.2     
   2 N2             0.5850    -0.5568     1.0964 N.am    
   3 O3             1.4194     1.5001     1.0388 O.2     
   4 O4            -0.6970     1.3041     1.6771 O.3     
   5 C5             1.8535    -1.1314     0.6417 C.3     
   6 C6             2.7737    -1.3518     1.8440 C.3     
   7 C7             1.5922    -2.4502    -0.0393 C.ar    
   8 C8             2.2962    -2.7867    -1.1819 C.ar    
   9 C9             2.0621    -3.9925    -1.8099 C.ar    
  10 C10            1.1126    -4.8739    -1.2900 C.ar    
  11 C11            0.4059    -4.5281    -0.1369 C.ar    
  12 C12            0.6534    -3.3214     0.4842 C.ar    
  13 S13            1.6541    -6.7584    -3.4132 S.3     
  14 C14            0.7293    -8.1948    -3.3503 C.2     
  15 N15           -0.0692    -8.1717    -2.3289 N.2     
  16 C16           -0.0296    -7.1034    -1.5609 C.2     
  17 C17            0.8563    -6.1672    -1.9579 C.2     
  18 O18            0.8178    -9.2118    -4.2408 O.3     
  19 C19           -0.0595   -10.2435    -4.1206 C.ar    
  20 C20           -1.3734   -10.0890    -4.5381 C.ar    
  21 C21           -2.2646   -11.1371    -4.4160 C.ar    
  22 C22           -1.8460   -12.3440    -3.8754 C.ar    
  23 C23           -0.5322   -12.4986    -3.4580 C.ar    
  24 C24            0.3606   -11.4526    -3.5857 C.ar    
  25 O25           -2.7236   -13.3755    -3.7544 O.3     
  26 C26           -2.2242   -14.5893    -3.1892 C.3     
  27 C27           -0.7478     2.7465     1.8365 C.3     
  28 H28           -0.1726    -1.1352     1.2766 H       
  29 H29            2.3308    -0.4481    -0.0607 H       
  30 H30            3.7175    -1.7793     1.5056 H       
  31 H31            2.9627    -0.3980     2.3365 H       
  32 H32            2.2964    -2.0351     2.5464 H       
  33 H33            3.0303    -2.1037    -1.5832 H       
  34 H34            2.6120    -4.2539    -2.7019 H       
  35 H35           -0.3303    -5.2054     0.2701 H       
  36 H36            0.1103    -3.0545     1.3787 H       
  37 H37           -0.6538    -6.9864    -0.6873 H       
  38 H38           -1.6995    -9.1491    -4.9583 H       
  39 H39           -3.2874   -11.0169    -4.7410 H       
  40 H40           -0.2065   -13.4383    -3.0368 H       
  41 H41            1.3846   -11.5744    -3.2648 H       
  42 H42           -1.4093   -14.9689    -3.8056 H       
  43 H43           -1.8577   -14.3967    -2.1809 H       
  44 H44           -3.0247   -15.3281    -3.1499 H       
  45 H45           -0.0086     3.0567     2.5750 H       
  46 H46           -0.5307     3.2254     0.8817 H       
  47 H47           -1.7423     3.0401     2.1723 H       
@<TRIPOS>BOND
   1    1    2 am
   2    1    3 2
   3    1    4 1
   4    2    5 1
   5    2   28 1
   6    4   27 1
   7    5    6 1
   8    5    7 1
   9    5   29 1
  10    6   30 1
  11    6   31 1
  12    6   32 1
  13    7    8 ar
  14    7   12 ar
  15    8    9 ar
  16    8   33 1
  17    9   10 ar
  18    9   34 1
  19   10   11 ar
  20   10   17 1
  21   11   12 ar
  22   11   35 1
  23   12   36 1
  24   13   14 1
  25   13   17 1
  26   14   15 2
  27   14   18 1
  28   15   16 1
  29   16   17 2
  30   16   37 1
  31   18   19 1
  32   19   20 ar
  33   19   24 ar
  34   20   21 ar
  35   20   38 1
  36   21   22 ar
  37   21   39 1
  38   22   23 ar
  39   22   25 1
  40   23   24 ar
  41   23   40 1
  42   24   41 1
  43   25   26 1
  44   26   42 1
  45   26   43 1
  46   26   44 1
  47   27   45 1
  48   27   46 1
  49   27   47 1

#	End of record

