#	Name: ASD02198349
#	Creating user name:	WinNT
#	Creation time:	15. 06. 2019 20:19

#	Modifying user name:	WinNT
#	Modification time:	15. 06. 2019 20:19

#	Program:	/corina/corina34_cracker 3.40 0067  02.08.2006

@<TRIPOS>MOLECULE
ASD02198349
  42   45    0    0    0
SMALL
NO_CHARGES


@<TRIPOS>ATOM
   1 C1            -0.1630     1.3682    -0.3968 C.2     
   2 C2            -0.1780    -0.0138    -0.4157 C.2     
   3 S3             1.4311     1.8938    -0.9321 S.3     
   4 C4             1.9198     0.2682    -1.1274 C.2     
   5 N5             0.9547    -0.5465    -0.8119 N.2     
   6 N6            -1.2834    -0.7656    -0.0507 N.pl3   
   7 C7            -1.2315     2.2055    -0.0227 C.2     
   8 C8            -1.0219     3.6643     0.0933 C.ar    
   9 O9            -2.3299     1.7272     0.2055 O.2     
  10 N10            3.1655    -0.1265    -1.5597 N.pl3   
  11 C11           -2.0919     4.5423    -0.0934 C.ar    
  12 C12            0.2455     4.1675     0.3956 C.ar    
  13 C13            0.4370     5.5273     0.5029 C.ar    
  14 C14           -0.6290     6.3983     0.3112 C.ar    
  15 C15           -1.8927     5.9009     0.0154 C.ar    
  16 C16            3.4776    -1.5518    -1.6912 C.3     
  17 O17           -0.4366     7.7377     0.4181 O.3     
  18 C18            0.2926     8.3565    -0.5472 C.ar    
  19 C19            0.7438     7.6381    -1.6452 C.ar    
  20 C20            1.4850     8.2695    -2.6251 C.ar    
  21 C21            1.7773     9.6163    -2.5124 C.ar    
  22 C22            1.3292    10.3344    -1.4190 C.ar    
  23 C23            0.5825     9.7091    -0.4394 C.ar    
  24 C24            4.5769    -1.9461    -2.6797 C.3     
  25 C25            4.8366    -2.0280    -1.1741 C.3     
  26 H26           -2.0978    -0.3232     0.2355 H       
  27 H27           -1.2428    -1.7343    -0.0815 H       
  28 H28            3.8368     0.5391    -1.7774 H       
  29 H29           -3.0741     4.1565    -0.3233 H       
  30 H30            1.0741     3.4913     0.5454 H       
  31 H31            1.4167     5.9171     0.7366 H       
  32 H32           -2.7187     6.5806    -0.1333 H       
  33 H33            2.6315    -2.2303    -1.5825 H       
  34 H34            0.5161     6.5860    -1.7335 H       
  35 H35            1.8368     7.7108    -3.4797 H       
  36 H36            2.3569    10.1081    -3.2796 H       
  37 H37            1.5595    11.3861    -1.3330 H       
  38 H38            0.2324    10.2706     0.4142 H       
  39 H39            4.4541    -2.8841    -3.2210 H       
  40 H40            5.0678    -1.1450    -3.2322 H       
  41 H41            5.4984    -1.2809    -0.7362 H       
  42 H42            4.8847    -3.0200    -0.7250 H       
@<TRIPOS>BOND
   1    1    2 2
   2    1    3 1
   3    1    7 1
   4    2    6 1
   5    2    5 1
   6    3    4 1
   7    4    5 2
   8    4   10 1
   9    6   26 1
  10    6   27 1
  11    7    8 1
  12    7    9 2
  13    8   11 ar
  14    8   12 ar
  15   10   16 1
  16   10   28 1
  17   11   15 ar
  18   11   29 1
  19   12   13 ar
  20   12   30 1
  21   13   14 ar
  22   13   31 1
  23   14   15 ar
  24   14   17 1
  25   15   32 1
  26   16   24 1
  27   16   25 1
  28   16   33 1
  29   17   18 1
  30   18   19 ar
  31   18   23 ar
  32   19   20 ar
  33   19   34 1
  34   20   21 ar
  35   20   35 1
  36   21   22 ar
  37   21   36 1
  38   22   23 ar
  39   22   37 1
  40   23   38 1
  41   24   25 1
  42   24   39 1
  43   24   40 1
  44   25   41 1
  45   25   42 1

#	End of record

