#	Name: ASD01870412
#	Creating user name:	WinNT
#	Creation time:	15. 06. 2019 19:39

#	Modifying user name:	WinNT
#	Modification time:	15. 06. 2019 19:39

#	Program:	/corina/corina34_cracker 3.40 0067  02.08.2006

@<TRIPOS>MOLECULE
ASD01870412
  49   53    0    0    0
SMALL
NO_CHARGES


@<TRIPOS>ATOM
   1 N1            -0.0179     1.4681     0.0101 N.am    
   2 C2             0.0021    -0.0041     0.0020 C.3     
   3 C3            -0.6095    -0.4884     1.3162 C.3     
   4 C4            -1.8940     0.2386     1.6084 C.ar    
   5 C5            -2.2273     1.4409     1.0279 C.ar    
   6 C6            -1.3293     2.1246     0.0323 C.3     
   7 C7            -2.7791    -0.3432     2.5126 C.ar    
   8 C8             1.1239     2.1843     0.0031 C.2     
   9 C9             1.0688     3.6902     0.0117 C.3     
  10 O10            2.1956     1.6167    -0.0102 O.2     
  11 C11            2.4544     4.3611     0.0020 C.3     
  12 N12            1.8785     5.3070    -0.9736 N.am    
  13 C13            0.8692     4.3111    -1.3828 C.3     
  14 S14            2.2256     6.8614    -1.4270 S.o2    
  15 C15            3.3850     6.7720    -2.7509 C.ar    
  16 C16            4.6665     6.2458    -2.5336 C.ar    
  17 O17            1.0292     7.3957    -1.9768 O.2     
  18 O18            2.9110     7.4550    -0.3329 O.2     
  19 C19            3.0415     7.2083    -3.9948 C.ar    
  20 C20            3.9459     7.1446    -5.0533 C.ar    
  21 C21            5.2002     6.6445    -4.8774 C.ar    
  22 C22            5.5885     6.1810    -3.6106 C.ar    
  23 C23           -3.9639     0.3100     2.8034 C.ar    
  24 C24            6.8681     5.6555    -3.3686 C.ar    
  25 N25            7.1856     5.2346    -2.1668 N.ar    
  26 C26            6.3424     5.2800    -1.1442 C.ar    
  27 C27            5.0802     5.7740    -1.2743 C.ar    
  28 C28           -4.2287     1.5190     2.1876 C.ar    
  29 N29           -3.3706     2.0381     1.3365 N.ar    
  30 H30           -0.5851    -0.3764    -0.8375 H       
  31 H31            1.0296    -0.3586    -0.0795 H       
  32 H32           -0.8105    -1.5573     1.2457 H       
  33 H33            0.0962    -0.3097     2.1274 H       
  34 H34           -1.2099     3.1716     0.3107 H       
  35 H35           -1.7748     2.0623    -0.9605 H       
  36 H36           -2.5448    -1.2887     2.9789 H       
  37 H37            0.3946     4.0865     0.7710 H       
  38 H38            2.7264     4.8212     0.9520 H       
  39 H39            3.2441     3.7324    -0.4091 H       
  40 H40            1.1932     3.6677    -2.2007 H       
  41 H41           -0.1245     4.7312    -1.5385 H       
  42 H42            2.0531     7.6094    -4.1633 H       
  43 H43            3.6468     7.4972    -6.0293 H       
  44 H44            5.8899     6.6012    -5.7074 H       
  45 H45           -4.6700    -0.1178     3.4996 H       
  46 H46            7.5896     5.5976    -4.1702 H       
  47 H47            6.6669     4.9170    -0.1802 H       
  48 H48            4.4096     5.8017    -0.4282 H       
  49 H49           -5.1481     2.0416     2.4069 H       
@<TRIPOS>BOND
   1    1    2 1
   2    1    8 am
   3    1    6 1
   4    2    3 1
   5    2   30 1
   6    2   31 1
   7    3    4 1
   8    3   32 1
   9    3   33 1
  10    4    5 ar
  11    4    7 ar
  12    5    6 1
  13    5   29 ar
  14    6   34 1
  15    6   35 1
  16    7   23 ar
  17    7   36 1
  18    8    9 1
  19    8   10 2
  20    9   11 1
  21    9   13 1
  22    9   37 1
  23   11   12 1
  24   11   38 1
  25   11   39 1
  26   12   13 1
  27   12   14 am
  28   13   40 1
  29   13   41 1
  30   14   15 1
  31   14   17 2
  32   14   18 2
  33   15   19 ar
  34   15   16 ar
  35   16   22 ar
  36   16   27 ar
  37   19   20 ar
  38   19   42 1
  39   20   21 ar
  40   20   43 1
  41   21   22 ar
  42   21   44 1
  43   22   24 ar
  44   23   28 ar
  45   23   45 1
  46   24   25 ar
  47   24   46 1
  48   25   26 ar
  49   26   27 ar
  50   26   47 1
  51   27   48 1
  52   28   29 ar
  53   28   49 1

#	End of record

