#	Name: ASD06710032
#	Creating user name:	WinNT
#	Creation time:	15. 06. 2019 21:08

#	Modifying user name:	WinNT
#	Modification time:	15. 06. 2019 21:08

#	Program:	/corina/corina34_cracker 3.40 0067  02.08.2006

@<TRIPOS>MOLECULE
ASD06710032
  36   38    0    0    0
SMALL
NO_CHARGES


@<TRIPOS>ATOM
   1 C1             2.0164     0.3493    -1.1300 C.ar    
   2 C2             1.1634    -0.5890    -0.5900 C.ar    
   3 C3             0.4429    -0.3017     0.5586 C.ar    
   4 C4             0.5769     0.9352     1.1730 C.ar    
   5 C5             2.1576     1.5994    -0.5165 C.ar    
   6 C6             2.9754     2.7713    -0.8602 C.2     
   7 C7             1.4255     1.8773     0.6423 C.ar    
   8 C8             1.7907     3.2824     1.0554 C.3     
   9 C9             2.7876     3.7604     0.0256 C.2     
  10 C10            3.4384     5.0780     0.0000 C.2     
  11 N11            2.6649     6.2375    -0.0945 N.pl3   
  12 C12            4.7730     5.1671     0.0672 C.2     
  13 C13            3.3005     7.5530     0.0135 C.3     
  14 C14            1.2180     6.1378    -0.3015 C.3     
  15 F15           -0.3917    -1.2272     1.0804 F       
  16 C16            3.7185     8.0228    -1.3560 C.2     
  17 C17            3.7458     8.9659    -3.3612 C.2     
  18 C18            2.9675     8.7526    -2.2002 C.2     
  19 O19            4.9064     7.7887    -1.9382 O.3     
  20 C20            4.9283     8.3564    -3.1552 C.2     
  21 Br21           6.3743     8.3072    -4.3729 Br      
  22 H22            2.5786     0.1186    -2.0228 H       
  23 H23            1.0557    -1.5532    -1.0646 H       
  24 H24            0.0145     1.1577     2.0678 H       
  25 H25            3.6382     2.8281    -1.7110 H       
  26 H26            0.9064     3.9197     1.0471 H       
  27 H27            2.2439     3.2781     2.0467 H       
  28 H28            5.2512     6.1353     0.0484 H       
  29 H29            5.3710     4.2708     0.1403 H       
  30 H30            2.5938     8.2639     0.4416 H       
  31 H31            4.1778     7.4809     0.6563 H       
  32 H32            0.7214     6.0078     0.6600 H       
  33 H33            0.8555     7.0490    -0.7774 H       
  34 H34            1.0006     5.2825    -0.9413 H       
  35 H35            3.4496     9.5150    -4.2428 H       
  36 H36            1.9626     9.1072    -2.0249 H       
@<TRIPOS>BOND
   1    1    2 ar
   2    1    5 ar
   3    1   22 1
   4    2    3 ar
   5    2   23 1
   6    3    4 ar
   7    3   15 1
   8    4    7 ar
   9    4   24 1
  10    5    7 ar
  11    5    6 1
  12    6    9 2
  13    6   25 1
  14    7    8 1
  15    8    9 1
  16    8   26 1
  17    8   27 1
  18    9   10 1
  19   10   11 1
  20   10   12 2
  21   11   13 1
  22   11   14 1
  23   12   28 1
  24   12   29 1
  25   13   16 1
  26   13   30 1
  27   13   31 1
  28   14   32 1
  29   14   33 1
  30   14   34 1
  31   16   19 1
  32   16   18 2
  33   17   18 1
  34   17   20 2
  35   17   35 1
  36   18   36 1
  37   19   20 1
  38   20   21 1

#	End of record

