#	Name: ASD02038830
#	Creating user name:	WinNT
#	Creation time:	15. 06. 2019 20:17

#	Modifying user name:	WinNT
#	Modification time:	15. 06. 2019 20:17

#	Program:	/corina/corina34_cracker 3.40 0067  02.08.2006

@<TRIPOS>MOLECULE
ASD02038830
  52   55    0    0    0
SMALL
NO_CHARGES


@<TRIPOS>ATOM
   1 C1            -1.2823    -0.8513     0.4656 C.2     
   2 C2            -0.0607    -0.0344     0.3017 C.2     
   3 N3             1.1368    -0.6350     0.1536 N.am    
   4 C4             1.2419    -2.0930     0.2501 C.3     
   5 C5             1.2141    -2.6913    -1.1327 C.ar    
   6 C6             2.3333     0.1703    -0.1038 C.3     
   7 O7            -0.1364     1.1788     0.3005 O.2     
   8 N8            -1.3377    -2.1953     0.4969 N.2     
   9 C9            -2.5931    -2.5287     0.6565 C.2     
  10 N10           -3.3112    -1.3924     0.7236 N.pl3   
  11 N11           -2.5060    -0.3927     0.6122 N.2     
  12 C12            2.3970    -3.0120    -1.7679 C.ar    
  13 C13            2.1214     1.0144    -1.3643 C.3     
  14 C14            3.3441     1.9098    -1.5810 C.3     
  15 O15            3.5437     2.7286    -0.4269 O.3     
  16 C16            3.7937     1.9943     0.7733 C.3     
  17 C17            2.5891     1.1023     1.0845 C.3     
  18 C18            0.0032    -2.9228    -1.7599 C.ar    
  19 C19           -0.0309    -3.4720    -3.0287 C.ar    
  20 C20            1.1470    -3.7930    -3.6770 C.ar    
  21 C21            2.3710    -3.5654    -3.0460 C.ar    
  22 C22            3.6393    -3.9073    -3.7355 C.ar    
  23 C23            4.4649    -4.9070    -3.2257 C.ar    
  24 C24           -4.7631    -1.3065     0.8996 C.3     
  25 F25            1.1134    -4.3298    -4.9164 F       
  26 C26            5.6437    -5.2215    -3.8715 C.ar    
  27 C27            6.0067    -4.5461    -5.0226 C.ar    
  28 C28            5.1917    -3.5525    -5.5341 C.ar    
  29 C29            4.0070    -3.2331    -4.8998 C.ar    
  30 Cl30           2.9848    -1.9858    -5.5425 Cl      
  31 H31            2.1778    -2.3580     0.7419 H       
  32 H32            0.4043    -2.4801     0.8304 H       
  33 H33            3.1915    -0.4867    -0.2450 H       
  34 H34           -2.9826    -3.5339     0.7222 H       
  35 H35            3.3412    -2.8338    -1.2749 H       
  36 H36            1.9935     0.3580    -2.2251 H       
  37 H37            1.2330     1.6342    -1.2426 H       
  38 H38            4.2252     1.2889    -1.7429 H       
  39 H39            3.1806     2.5436    -2.4525 H       
  40 H40            4.6807     1.3746     0.6421 H       
  41 H41            3.9542     2.6891     1.5977 H       
  42 H42            1.7102     1.7239     1.2557 H       
  43 H43            2.7957     0.5088     1.9751 H       
  44 H44           -0.9193    -2.6741    -1.2565 H       
  45 H45           -0.9793    -3.6506    -3.5136 H       
  46 H46            4.1832    -5.4349    -2.3266 H       
  47 H47           -4.9984    -1.2666     1.9632 H       
  48 H48           -5.1357    -0.4062     0.4110 H       
  49 H49           -5.2353    -2.1828     0.4557 H       
  50 H50            6.2841    -5.9964    -3.4768 H       
  51 H51            6.9303    -4.7953    -5.5238 H       
  52 H52            5.4802    -3.0281    -6.4331 H       
@<TRIPOS>BOND
   1    1    2 1
   2    1    8 1
   3    1   11 2
   4    2    3 am
   5    2    7 2
   6    3    4 1
   7    3    6 1
   8    4    5 1
   9    4   31 1
  10    4   32 1
  11    5   12 ar
  12    5   18 ar
  13    6   13 1
  14    6   17 1
  15    6   33 1
  16    8    9 2
  17    9   10 1
  18    9   34 1
  19   10   11 1
  20   10   24 1
  21   12   21 ar
  22   12   35 1
  23   13   14 1
  24   13   36 1
  25   13   37 1
  26   14   15 1
  27   14   38 1
  28   14   39 1
  29   15   16 1
  30   16   17 1
  31   16   40 1
  32   16   41 1
  33   17   42 1
  34   17   43 1
  35   18   19 ar
  36   18   44 1
  37   19   20 ar
  38   19   45 1
  39   20   21 ar
  40   20   25 1
  41   21   22 1
  42   22   23 ar
  43   22   29 ar
  44   23   26 ar
  45   23   46 1
  46   24   47 1
  47   24   48 1
  48   24   49 1
  49   26   27 ar
  50   26   50 1
  51   27   28 ar
  52   27   51 1
  53   28   29 ar
  54   28   52 1
  55   29   30 1

#	End of record

