#	Name: ASD03910033
#	Creating user name:	WinNT
#	Creation time:	15. 06. 2019 20:47

#	Modifying user name:	WinNT
#	Modification time:	15. 06. 2019 20:47

#	Program:	/corina/corina34_cracker 3.40 0067  02.08.2006

@<TRIPOS>MOLECULE
ASD03910033
  58   59    0    0    0
SMALL
NO_CHARGES


@<TRIPOS>ATOM
   1 C1            -0.2096    -0.2726    -0.3251 C.ar    
   2 C2             0.8064     0.2991     0.4187 C.ar    
   3 C3             0.5656     1.4406     1.1611 C.ar    
   4 C4            -0.6912     2.0132     1.1620 C.ar    
   5 C5            -1.7136     1.4416     0.4161 C.ar    
   6 C6            -1.4670     0.2986    -0.3332 C.ar    
   7 N7            -2.9881     2.0192     0.4149 N.am    
   8 C8            -3.1205     3.3596     0.4620 C.2     
   9 O9            -2.1392     4.0620     0.5838 O.2     
  10 C10           -4.3604     5.4852     0.4413 C.ar    
  11 C11           -4.1919     6.2247    -0.7148 C.ar    
  12 C12           -4.0806     7.6000    -0.6464 C.ar    
  13 C13           -4.1381     8.2390     0.5836 C.ar    
  14 C14           -4.3072     7.4948     1.7422 C.ar    
  15 C15           -4.4179     6.1198     1.6684 C.ar    
  16 O16           -4.0284     9.5918     0.6536 O.3     
  17 C17           -4.2057    10.1915     1.9385 C.3     
  18 C18           -3.1590     9.6659     2.8868 C.2     
  19 C19            0.0572    -1.5167    -1.1327 C.3     
  20 C20            1.6757     2.0603     1.9703 C.3     
  21 O21           -2.3417     8.8575     2.5004 O.2     
  22 N22           -3.1311    10.0944     4.1644 N.am    
  23 C23           -4.4877     3.9857     0.3632 C.3     
  24 C24           -4.0665    11.7102     1.8161 C.3     
  25 C25           -5.5973     9.8484     2.4739 C.3     
  26 C26           -2.1136     9.5835     5.0863 C.3     
  27 C27           -2.6182     9.6927     6.5020 C.2     
  28 O28           -3.7152    10.1504     6.7188 O.2     
  29 O29           -1.8489     9.2816     7.5223 O.3     
  30 C30           -0.8315    10.4050     4.9369 C.3     
  31 H31            1.7899    -0.1472     0.4202 H       
  32 H32           -0.8788     2.9044     1.7426 H       
  33 H33           -2.2599    -0.1481    -0.9147 H       
  34 H34           -3.7763     1.4549     0.3803 H       
  35 H35           -4.1468     5.7267    -1.6720 H       
  36 H36           -3.9486     8.1771    -1.5497 H       
  37 H37           -4.3519     7.9900     2.7009 H       
  38 H38           -4.5496     5.5400     2.5700 H       
  39 H39           -0.1424    -2.3966    -0.5211 H       
  40 H40           -0.5920    -1.5277    -2.0081 H       
  41 H41            1.0991    -1.5255    -1.4529 H       
  42 H42            2.2073     2.7897     1.3591 H       
  43 H43            1.2545     2.5568     2.8444 H       
  44 H44            2.3681     1.2827     2.2925 H       
  45 H45           -3.7848    10.7410     4.4734 H       
  46 H46           -4.9464     3.7089    -0.5861 H       
  47 H47           -5.1101     3.6306     1.1846 H       
  48 H48           -4.8751    12.1005     1.1981 H       
  49 H49           -4.1168    12.1607     2.8074 H       
  50 H50           -3.1084    11.9513     1.3556 H       
  51 H51           -5.7454     8.7692     2.4354 H       
  52 H52           -5.6844    10.1906     3.5051 H       
  53 H53           -6.3534    10.3409     1.8625 H       
  54 H54           -1.9049     8.5390     4.8545 H       
  55 H55           -2.2156     9.3717     8.4126 H       
  56 H56           -1.0402    11.4494     5.1687 H       
  57 H57           -0.0745    10.0249     5.6228 H       
  58 H58           -0.4665    10.3260     3.9129 H       
@<TRIPOS>BOND
   1    1    2 ar
   2    1   19 1
   3    1    6 ar
   4    2    3 ar
   5    2   31 1
   6    3    4 ar
   7    3   20 1
   8    4    5 ar
   9    4   32 1
  10    5    6 ar
  11    5    7 1
  12    6   33 1
  13    7    8 am
  14    7   34 1
  15    8    9 2
  16    8   23 1
  17   10   11 ar
  18   10   15 ar
  19   10   23 1
  20   11   12 ar
  21   11   35 1
  22   12   13 ar
  23   12   36 1
  24   13   14 ar
  25   13   16 1
  26   14   15 ar
  27   14   37 1
  28   15   38 1
  29   16   17 1
  30   17   18 1
  31   17   24 1
  32   17   25 1
  33   18   21 2
  34   18   22 am
  35   19   39 1
  36   19   40 1
  37   19   41 1
  38   20   42 1
  39   20   43 1
  40   20   44 1
  41   22   26 1
  42   22   45 1
  43   23   46 1
  44   23   47 1
  45   24   48 1
  46   24   49 1
  47   24   50 1
  48   25   51 1
  49   25   52 1
  50   25   53 1
  51   26   27 1
  52   26   30 1
  53   26   54 1
  54   27   28 2
  55   27   29 1
  56   29   55 1
  57   30   56 1
  58   30   57 1
  59   30   58 1

#	End of record

