#	Name: ASD01915714
#	Creating user name:	WinNT
#	Creation time:	15. 06. 2019 20:06

#	Modifying user name:	WinNT
#	Modification time:	15. 06. 2019 20:06

#	Program:	/corina/corina34_cracker 3.40 0067  02.08.2006

@<TRIPOS>MOLECULE
ASD01915714
  43   46    0    0    0
SMALL
NO_CHARGES


@<TRIPOS>ATOM
   1 C1            -0.0043     1.4631     0.2181 C.2     
   2 N2             0.0616     0.1100    -0.0288 N.pl3   
   3 C3            -1.1509    -0.6740    -0.2929 C.3     
   4 C4            -2.3298    -0.0463     0.4488 C.3     
   5 N5            -2.4043     1.3988     0.2637 N.am    
   6 C6            -1.2917     2.1721     0.2683 C.2     
   7 C7             1.2784     1.9003     0.3947 C.2     
   8 C8             2.0745     0.7558     0.2529 C.2     
   9 N9             1.2814    -0.2614     0.0092 N.2     
  10 C10            3.5767     0.7021     0.3615 C.3     
  11 O11            4.0815     2.0107     0.6351 O.3     
  12 C12            5.4262     2.1377     0.7636 C.ar    
  13 O13           -1.3543     3.3861     0.3116 O.2     
  14 N14            6.2001     1.0728     0.6343 N.ar    
  15 C15            5.9773     3.3855     1.0242 C.ar    
  16 C16            7.3506     3.5016     1.1531 C.ar    
  17 C17            8.1272     2.3595     1.0160 C.ar    
  18 C18            7.5118     1.1519     0.7517 C.ar    
  19 C19           -3.6493     1.9981     0.0776 C.ar    
  20 N20           -3.7162     3.2598    -0.3194 N.ar    
  21 C21           -4.8055     1.2643     0.3051 C.ar    
  22 C22           -6.0398     1.8738     0.1159 C.ar    
  23 C23           -6.0650     3.2065    -0.2975 C.ar    
  24 C24           -4.8724     3.8689    -0.5087 C.ar    
  25 F25           -7.2424     3.8391    -0.4943 F       
  26 O26           -7.1933     1.1892     0.3276 O.3     
  27 C27           -7.0726    -0.1709     0.7490 C.3     
  28 H28           -1.3553    -0.6784    -1.3635 H       
  29 H29           -1.0055    -1.6969     0.0544 H       
  30 H30           -3.2540    -0.4960     0.0858 H       
  31 H31           -2.2307    -0.2604     1.5130 H       
  32 H32            1.6070     2.9086     0.5991 H       
  33 H33            3.8586     0.0276     1.1700 H       
  34 H34            3.9961     0.3397    -0.5770 H       
  35 H35            5.3430     4.2538     1.1245 H       
  36 H36            7.8074     4.4591     1.3553 H       
  37 H37            9.2016     2.4155     1.1105 H       
  38 H38            8.1115     0.2602     0.6441 H       
  39 H39           -4.7465     0.2343     0.6242 H       
  40 H40           -4.8851     4.9003    -0.8286 H       
  41 H41           -6.5296    -0.7386    -0.0067 H       
  42 H42           -6.5301    -0.2118     1.6935 H       
  43 H43           -8.0659    -0.5998     0.8815 H       
@<TRIPOS>BOND
   1    1    2 1
   2    1    7 2
   3    1    6 1
   4    2    3 1
   5    2    9 1
   6    3    4 1
   7    3   28 1
   8    3   29 1
   9    4    5 1
  10    4   30 1
  11    4   31 1
  12    5    6 am
  13    5   19 1
  14    6   13 2
  15    7    8 1
  16    7   32 1
  17    8    9 2
  18    8   10 1
  19   10   11 1
  20   10   33 1
  21   10   34 1
  22   11   12 1
  23   12   14 ar
  24   12   15 ar
  25   14   18 ar
  26   15   16 ar
  27   15   35 1
  28   16   17 ar
  29   16   36 1
  30   17   18 ar
  31   17   37 1
  32   18   38 1
  33   19   20 ar
  34   19   21 ar
  35   20   24 ar
  36   21   22 ar
  37   21   39 1
  38   22   23 ar
  39   22   26 1
  40   23   24 ar
  41   23   25 1
  42   24   40 1
  43   26   27 1
  44   27   41 1
  45   27   42 1
  46   27   43 1

#	End of record

