#	Name: ASD01813278
#	Creating user name:	WinNT
#	Creation time:	15. 06. 2019 19:30

#	Modifying user name:	WinNT
#	Modification time:	15. 06. 2019 19:30

#	Program:	/corina/corina34_cracker 3.40 0067  02.08.2006

@<TRIPOS>MOLECULE
ASD01813278
  52   55    0    0    0
SMALL
NO_CHARGES


@<TRIPOS>ATOM
   1 C1             0.5730     1.4670     0.0076 C.3     
   2 C2             0.3764    -0.0271     0.0008 C.ar    
   3 C3             0.3822    -0.7380    -1.1859 C.ar    
   4 C4             0.1995    -2.1117    -1.1630 C.ar    
   5 N5             0.0192    -2.7567    -0.0298 N.ar    
   6 C6             0.0056    -2.1198     1.1341 C.ar    
   7 C7            -0.1699    -2.5540     2.5319 C.2     
   8 C8            -0.0866    -1.4300     3.3015 C.2     
   9 N9             0.1226    -0.3497     2.5131 N.pl3   
  10 C10            0.2631     1.0254     2.9983 C.3     
  11 C11            0.2766     1.0275     4.5053 C.ar    
  12 C12           -0.8937     1.2483     5.2066 C.ar    
  13 C13           -0.8829     1.2506     6.5891 C.ar    
  14 C14            0.2983     1.0320     7.2728 C.ar    
  15 C15            1.4719     0.8106     6.5734 C.ar    
  16 F16            2.6269     0.5968     7.2410 F       
  17 C17            1.4601     0.8026     5.1870 C.ar    
  18 F18            2.6034     0.5812     4.5022 F       
  19 C19            0.1900    -0.7282     1.1892 C.ar    
  20 C20           -0.3915    -3.9277     3.0040 C.2     
  21 O21           -0.4453    -4.8441     2.2055 O.2     
  22 N22           -0.5351    -4.1725     4.3215 N.am    
  23 C23           -0.7560    -5.5421     4.7922 C.3     
  24 H24           -1.3629    -6.0825     4.0657 H       
  25 C25            0.5912    -6.2482     4.9573 C.3     
  26 C26            0.3605    -7.6786     5.4489 C.3     
  27 C27           -0.3657    -7.6443     6.7952 C.3     
  28 C28           -1.7129    -6.9382     6.6301 C.3     
  29 C29           -1.4822    -5.5078     6.1385 C.3     
  30 H30           -0.8754    -4.9674     6.8650 H       
  31 O31           -2.7405    -4.8483     5.9843 O.3     
  32 H32            1.6249     1.6942     0.1807 H       
  33 H33            0.2658     1.8782    -0.9540 H       
  34 H34           -0.0296     1.9091     0.8010 H       
  35 H35            0.5280    -0.2253    -2.1252 H       
  36 H36            0.2047    -2.6628    -2.0918 H       
  37 H37           -0.1744    -1.4060     4.3776 H       
  38 H38            1.1960     1.4486     2.6260 H       
  39 H39           -0.5752     1.6240     2.6417 H       
  40 H40           -1.8175     1.4197     4.6741 H       
  41 H41           -1.7983     1.4237     7.1354 H       
  42 H42            0.3054     1.0344     8.3528 H       
  43 H43           -0.4921    -3.4419     4.9581 H       
  44 H44            1.1086    -6.2727     3.9982 H       
  45 H45            1.1981    -5.7078     5.6838 H       
  46 H46           -0.2464    -8.2190     4.7224 H       
  47 H47            1.3203    -8.1816     5.5665 H       
  48 H48           -0.5301    -8.6633     7.1454 H       
  49 H49            0.2411    -7.1039     7.5217 H       
  50 H50           -2.3198    -7.4786     5.9036 H       
  51 H51           -2.2303    -6.9137     7.5892 H       
  52 H52           -3.2565    -4.7899     6.8000 H       
@<TRIPOS>BOND
   1    1    2 1
   2    1   32 1
   3    1   33 1
   4    1   34 1
   5    2   19 ar
   6    2    3 ar
   7    3    4 ar
   8    3   35 1
   9    4    5 ar
  10    4   36 1
  11    5    6 ar
  12    6   19 ar
  13    6    7 1
  14    7    8 2
  15    7   20 1
  16    8    9 1
  17    8   37 1
  18    9   10 1
  19    9   19 1
  20   10   11 1
  21   10   38 1
  22   10   39 1
  23   11   17 ar
  24   11   12 ar
  25   12   13 ar
  26   12   40 1
  27   13   14 ar
  28   13   41 1
  29   14   15 ar
  30   14   42 1
  31   15   16 1
  32   15   17 ar
  33   17   18 1
  34   20   21 2
  35   20   22 am
  36   22   23 1
  37   22   43 1
  38   23   24 1
  39   23   29 1
  40   23   25 1
  41   25   26 1
  42   25   44 1
  43   25   45 1
  44   26   27 1
  45   26   46 1
  46   26   47 1
  47   27   28 1
  48   27   48 1
  49   27   49 1
  50   28   29 1
  51   28   50 1
  52   28   51 1
  53   29   30 1
  54   29   31 1
  55   31   52 1

#	End of record

