#	Name: ASD02398078
#	Creating user name:	WinNT
#	Creation time:	15. 06. 2019 20:20

#	Modifying user name:	WinNT
#	Modification time:	15. 06. 2019 20:20

#	Program:	/corina/corina34_cracker 3.40 0067  02.08.2006

@<TRIPOS>MOLECULE
ASD02398078
  53   55    0    0    0
SMALL
NO_CHARGES


@<TRIPOS>ATOM
   1 C1            -0.0167     1.3833     0.0096 C.ar    
   2 C2             0.0021    -0.0041     0.0020 C.ar    
   3 C3            -1.1853    -0.7097     0.0095 C.ar    
   4 C4            -2.3921    -0.0347     0.0242 C.ar    
   5 C5            -2.4135     1.3476     0.0318 C.ar    
   6 C6            -1.2285     2.0581     0.0306 C.ar    
   7 C7             1.3169    -0.7404    -0.0149 C.3     
   8 C8             1.4199    -1.6239     1.2277 C.3     
   9 C9             0.4550    -2.7749     1.1199 C.2     
  10 C10            0.2032    -3.3268    -0.0621 C.2     
  11 C11            0.8689    -2.8076    -1.2677 C.2     
  12 C12            1.3987    -1.5893    -1.2559 C.2     
  13 C13            2.0829    -1.0554    -2.4879 C.3     
  14 C14            1.9290     0.6969    -4.7006 C.ar    
  15 C15           -3.6860    -0.8071     0.0313 C.3     
  16 C16           -4.1047    -1.0727     1.4544 C.2     
  17 O17           -3.4223    -0.6755     2.3690 O.2     
  18 O18           -5.2356    -1.7505     1.7060 O.3     
  19 C19            1.7901     0.0356    -5.9065 C.ar    
  20 C20            2.7840     1.7785    -4.5999 C.ar    
  21 C21            3.5002     2.1986    -5.7051 C.ar    
  22 C22            3.3617     1.5370    -6.9109 C.ar    
  23 C23            2.5063     0.4557    -7.0117 C.ar    
  24 S24            1.0106     0.1659    -3.2937 S.o2    
  25 O25           -0.1384    -0.4646    -3.8428 O.2     
  26 O26            0.8929     1.3327    -2.4912 O.2     
  27 O27            1.1501     2.0799     0.0022 O.3     
  28 C28            1.0546     3.5057     0.0108 C.3     
  29 C29           -0.7603    -4.4807    -0.1679 C.3     
  30 F30           -1.2586    -4.7901     1.1021 F       
  31 F31           -1.8194    -4.1280    -1.0112 F       
  32 F32           -0.0973    -5.5951    -0.6931 F       
  33 H33           -1.1711    -1.7896     0.0036 H       
  34 H34           -3.3573     1.8725     0.0432 H       
  35 H35           -1.2458     3.1379     0.0366 H       
  36 H36            2.1351    -0.0202    -0.0160 H       
  37 H37            2.4356    -2.0098     1.3143 H       
  38 H38            1.1817    -1.0335     2.1125 H       
  39 H39           -0.0333    -3.1530     2.0059 H       
  40 H40            0.9268    -3.4151    -2.1588 H       
  41 H41            3.0234    -0.5827    -2.2051 H       
  42 H42            2.2814    -1.8758    -3.1776 H       
  43 H43           -4.4587    -0.2262    -0.4723 H       
  44 H44           -3.5465    -1.7546    -0.4892 H       
  45 H45           -5.4627    -1.8964     2.6345 H       
  46 H46            1.1224    -0.8097    -5.9851 H       
  47 H47            2.8922     2.2954    -3.6578 H       
  48 H48            4.1676     3.0440    -5.6266 H       
  49 H49            3.9207     1.8657    -7.7745 H       
  50 H50            2.3984    -0.0614    -7.9537 H       
  51 H51            2.0556     3.9369     0.0036 H       
  52 H52            0.5092     3.8386    -0.8722 H       
  53 H53            0.5262     3.8290     0.9076 H       
@<TRIPOS>BOND
   1    1    2 ar
   2    1   27 1
   3    1    6 ar
   4    2    3 ar
   5    2    7 1
   6    3    4 ar
   7    3   33 1
   8    4    5 ar
   9    4   15 1
  10    5    6 ar
  11    5   34 1
  12    6   35 1
  13    7    8 1
  14    7   12 1
  15    7   36 1
  16    8    9 1
  17    8   37 1
  18    8   38 1
  19    9   10 2
  20    9   39 1
  21   10   11 1
  22   10   29 1
  23   11   12 2
  24   11   40 1
  25   12   13 1
  26   13   24 1
  27   13   41 1
  28   13   42 1
  29   14   19 ar
  30   14   20 ar
  31   14   24 1
  32   15   16 1
  33   15   43 1
  34   15   44 1
  35   16   17 2
  36   16   18 1
  37   18   45 1
  38   19   23 ar
  39   19   46 1
  40   20   21 ar
  41   20   47 1
  42   21   22 ar
  43   21   48 1
  44   22   23 ar
  45   22   49 1
  46   23   50 1
  47   24   25 2
  48   24   26 2
  49   27   28 1
  50   28   51 1
  51   28   52 1
  52   28   53 1
  53   29   30 1
  54   29   31 1
  55   29   32 1

#	End of record

