#	Name: ASD01914861
#	Creating user name:	WinNT
#	Creation time:	15. 06. 2019 20:04

#	Modifying user name:	WinNT
#	Modification time:	15. 06. 2019 20:04

#	Program:	/corina/corina34_cracker 3.40 0067  02.08.2006

@<TRIPOS>MOLECULE
ASD01914861
  45   47    0    0    0
SMALL
NO_CHARGES


@<TRIPOS>ATOM
   1 C1            -0.0183     1.4975     0.0103 C.3     
   2 C2             0.0021    -0.0041     0.0020 C.2     
   3 C3             1.0621    -0.7052    -0.3355 C.2     
   4 C4             2.3620    -0.0674    -0.7398 C.3     
   5 C5             2.1285     1.4051    -1.0868 C.3     
   6 N6             1.3522     2.0244     0.0000 N.3     
   7 C7             1.3524     3.4884    -0.1209 C.3     
   8 N8            -3.2766    -1.2023     1.0427 N.pl3   
   9 N9            -2.3674    -0.1765     0.7550 N.2     
  10 C10           -1.2262    -0.7275     0.3918 C.2     
  11 C11           -1.3832    -2.1304     0.4401 C.2     
  12 C12           -2.6490    -2.3917     0.8420 C.2     
  13 O13           -0.4308    -3.0551     0.1369 O.3     
  14 C14           -0.8015    -4.4303     0.2530 C.3     
  15 C15            0.3893    -5.3132    -0.1257 C.3     
  16 C16           -0.0076    -6.7856    -0.0014 C.3     
  17 C17            1.1652    -7.6553    -0.3745 C.ar    
  18 C18            2.0652    -8.0554     0.5955 C.ar    
  19 C19            3.1411    -8.8530     0.2533 C.ar    
  20 C20            3.3167    -9.2510    -1.0589 C.ar    
  21 C21            2.4162    -8.8516    -2.0287 C.ar    
  22 C22            1.3380    -8.0575    -1.6857 C.ar    
  23 H23           -0.5496     1.8561    -0.8713 H       
  24 H24           -0.5326     1.8466     0.9057 H       
  25 H25            0.9963    -1.7831    -0.3214 H       
  26 H26            3.0721    -0.1376     0.0841 H       
  27 H27            2.7649    -0.5855    -1.6101 H       
  28 H28            3.0871     1.9139    -1.1880 H       
  29 H29            1.5721     1.4773    -2.0213 H       
  30 H30            0.8173     3.9228     0.7234 H       
  31 H31            2.3799     3.8524    -0.1261 H       
  32 H32            0.8603     3.7763    -1.0500 H       
  33 H33           -4.1931    -1.0847     1.3378 H       
  34 H34           -3.0833    -3.3710     0.9791 H       
  35 H35           -1.0978    -4.6412     1.2805 H       
  36 H36           -1.6361    -4.6393    -0.4161 H       
  37 H37            0.6857    -5.1023    -1.1533 H       
  38 H38            1.2240    -5.1042     0.5434 H       
  39 H39           -0.3040    -6.9965     1.0261 H       
  40 H40           -0.8423    -6.9947    -0.6705 H       
  41 H41            1.9280    -7.7445     1.6206 H       
  42 H42            3.8446    -9.1651     1.0110 H       
  43 H43            4.1577    -9.8736    -1.3264 H       
  44 H44            2.5537    -9.1623    -3.0539 H       
  45 H45            0.6324    -7.7486    -2.4427 H       
@<TRIPOS>BOND
   1    1    2 1
   2    1    6 1
   3    1   23 1
   4    1   24 1
   5    2    3 2
   6    2   10 1
   7    3    4 1
   8    3   25 1
   9    4    5 1
  10    4   26 1
  11    4   27 1
  12    5    6 1
  13    5   28 1
  14    5   29 1
  15    6    7 1
  16    7   30 1
  17    7   31 1
  18    7   32 1
  19    8    9 1
  20    8   12 1
  21    8   33 1
  22    9   10 2
  23   10   11 1
  24   11   12 2
  25   11   13 1
  26   12   34 1
  27   13   14 1
  28   14   15 1
  29   14   35 1
  30   14   36 1
  31   15   16 1
  32   15   37 1
  33   15   38 1
  34   16   17 1
  35   16   39 1
  36   16   40 1
  37   17   18 ar
  38   17   22 ar
  39   18   19 ar
  40   18   41 1
  41   19   20 ar
  42   19   42 1
  43   20   21 ar
  44   20   43 1
  45   21   22 ar
  46   21   44 1
  47   22   45 1

#	End of record

