#	Name: ASD01350006
#	Creating user name:	WinNT
#	Creation time:	15. 06. 2019 19:16

#	Modifying user name:	WinNT
#	Modification time:	15. 06. 2019 19:16

#	Program:	/corina/corina34_cracker 3.40 0067  02.08.2006

@<TRIPOS>MOLECULE
ASD01350006
  48   51    0    0    0
SMALL
NO_CHARGES


@<TRIPOS>ATOM
   1 C1            -0.1930     1.1823    -0.0992 C.ar    
   2 C2            -0.1588    -0.1713     0.0574 C.ar    
   3 S3            -1.6760    -1.0265     0.2881 S.3     
   4 C4            -2.3377    -0.4149     1.7947 C.ar    
   5 C5            -2.3965     0.9032     2.1724 C.ar    
   6 C6            -1.8846     2.1239     1.4601 C.3     
   7 C7            -1.4721     1.9427     0.0350 C.3     
   8 C8             0.9870     1.8775    -0.3359 C.ar    
   9 C9             2.1866     1.1925    -0.3846 C.ar    
  10 C10            2.2195    -0.1779    -0.1989 C.ar    
  11 C11            1.0441    -0.8705     0.0240 C.ar    
  12 C12           -2.8457    -1.4012     2.6613 C.ar    
  13 C13           -3.4163    -1.0864     3.8674 C.ar    
  14 C14           -3.5003     0.2496     4.2430 C.ar    
  15 C15           -2.9968     1.2182     3.4010 C.ar    
  16 N16           -2.9357     3.1493     1.5023 N.3     
  17 C17           -4.1197     2.7213     0.7444 C.3     
  18 C18           -5.2179     3.7788     0.8788 C.3     
  19 N19           -4.7163     5.0679     0.3827 N.3     
  20 C20           -3.5323     5.4960     1.1407 C.3     
  21 C21           -2.4341     4.4385     1.0062 C.3     
  22 C22           -5.7674     6.0933     0.4250 C.3     
  23 S23           -4.2422     0.6995     5.7766 S.3     
  24 C24           -4.7266    -0.9006     6.4805 C.3     
  25 H25           -1.0258     2.5027     2.0143 H       
  26 H26           -1.3487     2.9237    -0.4237 H       
  27 H27           -2.2589     1.4049    -0.4940 H       
  28 H28            0.9667     2.9475    -0.4815 H       
  29 H29            3.1045     1.7309    -0.5692 H       
  30 H30            3.1614    -0.7056    -0.2284 H       
  31 H31            1.0592    -1.9404     0.1708 H       
  32 H32           -2.7844    -2.4384     2.3665 H       
  33 H33           -3.7946    -1.8634     4.5151 H       
  34 H34           -3.0667     2.2545     3.6971 H       
  35 H35           -3.8556     2.6028    -0.3065 H       
  36 H36           -4.4798     1.7709     1.1385 H       
  37 H37           -6.0868     3.4772     0.2938 H       
  38 H38           -5.5012     3.8777     1.9267 H       
  39 H39           -3.1722     6.4463     0.7465 H       
  40 H40           -3.7964     5.6144     2.1915 H       
  41 H41           -1.5652     4.7401     1.5913 H       
  42 H42           -2.1508     4.3395    -0.0416 H       
  43 H43           -6.1077     6.2226     1.4524 H       
  44 H44           -5.3694     7.0372     0.0525 H       
  45 H45           -6.6051     5.7808    -0.1986 H       
  46 H46           -5.4250    -1.3974     5.8070 H       
  47 H47           -3.8415    -1.5235     6.6100 H       
  48 H48           -5.2043    -0.7426     7.4474 H       
@<TRIPOS>BOND
   1    1    2 ar
   2    1    8 ar
   3    1    7 1
   4    2    3 1
   5    2   11 ar
   6    3    4 1
   7    4    5 ar
   8    4   12 ar
   9    5    6 1
  10    5   15 ar
  11    6    7 1
  12    6   16 1
  13    6   25 1
  14    7   26 1
  15    7   27 1
  16    8    9 ar
  17    8   28 1
  18    9   10 ar
  19    9   29 1
  20   10   11 ar
  21   10   30 1
  22   11   31 1
  23   12   13 ar
  24   12   32 1
  25   13   14 ar
  26   13   33 1
  27   14   15 ar
  28   14   23 1
  29   15   34 1
  30   16   17 1
  31   16   21 1
  32   17   18 1
  33   17   35 1
  34   17   36 1
  35   18   19 1
  36   18   37 1
  37   18   38 1
  38   19   20 1
  39   19   22 1
  40   20   21 1
  41   20   39 1
  42   20   40 1
  43   21   41 1
  44   21   42 1
  45   22   43 1
  46   22   44 1
  47   22   45 1
  48   23   24 1
  49   24   46 1
  50   24   47 1
  51   24   48 1

#	End of record

