#	Name: ASD02198434
#	Creating user name:	WinNT
#	Creation time:	15. 06. 2019 20:19

#	Modifying user name:	WinNT
#	Modification time:	15. 06. 2019 20:19

#	Program:	/corina/corina34_cracker 3.40 0067  02.08.2006

@<TRIPOS>MOLECULE
ASD02198434
  36   38    0    0    0
SMALL
NO_CHARGES


@<TRIPOS>ATOM
   1 C1             0.8089    -0.5885     1.3155 C.ar    
   2 S2            -0.0503     0.1021    -0.0591 S.o2    
   3 N3             0.7523    -0.3726    -1.4276 N.am    
   4 C4             2.0339     0.1110    -1.6872 C.ar    
   5 C5             2.4379     0.3799    -3.0136 C.ar    
   6 C6             3.7454     0.8710    -3.2479 C.ar    
   7 C7             4.6150     1.0814    -2.1658 C.ar    
   8 C8             4.1982     0.8129    -0.8972 C.ar    
   9 C9             2.9143     0.3358    -0.6512 C.ar    
  10 N10            1.6086     0.1777    -4.0408 N.ar    
  11 C11            1.9779     0.4250    -5.2740 C.ar    
  12 C12            3.2494     0.9089    -5.5750 C.ar    
  13 C13            4.1462     1.1384    -4.5711 C.ar    
  14 O14           -1.3208    -0.5332    -0.0983 O.2     
  15 O15            0.1117     1.5108     0.0329 O.2     
  16 C16            0.8884    -1.9653     1.4638 C.ar    
  17 C17            1.5660    -2.5065     2.5469 C.ar    
  18 C18            2.1600    -1.6736     3.4749 C.ar    
  19 C19            2.0792    -0.3004     3.3254 C.ar    
  20 C20            1.4089     0.2411     2.2433 C.ar    
  21 Br21           2.8922     0.8374     4.5982 Br      
  22 O22            0.3029    -2.7831     0.5497 O.3     
  23 C23            0.4249    -4.1903     0.7660 C.3     
  24 H24            0.3307    -0.9871    -2.0486 H       
  25 H25            5.6132     1.4554    -2.3391 H       
  26 H26            4.8726     0.9768    -0.0697 H       
  27 H27            2.6071     0.1306     0.3636 H       
  28 H28            1.2784     0.2487    -6.0778 H       
  29 H29            3.5252     1.1027    -6.6010 H       
  30 H30            5.1359     1.5137    -4.7861 H       
  31 H31            1.6287    -3.5782     2.6643 H       
  32 H32            2.6875    -2.0945     4.3181 H       
  33 H33            1.3473     1.3132     2.1282 H       
  34 H34            1.4793    -4.4667     0.7733 H       
  35 H35           -0.0258    -4.4512     1.7235 H       
  36 H36           -0.0857    -4.7265    -0.0340 H       
@<TRIPOS>BOND
   1    1    2 1
   2    1   16 ar
   3    1   20 ar
   4    2    3 am
   5    2   14 2
   6    2   15 2
   7    3    4 1
   8    3   24 1
   9    4    5 ar
  10    4    9 ar
  11    5    6 ar
  12    5   10 ar
  13    6    7 ar
  14    6   13 ar
  15    7    8 ar
  16    7   25 1
  17    8    9 ar
  18    8   26 1
  19    9   27 1
  20   10   11 ar
  21   11   12 ar
  22   11   28 1
  23   12   13 ar
  24   12   29 1
  25   13   30 1
  26   16   17 ar
  27   16   22 1
  28   17   18 ar
  29   17   31 1
  30   18   19 ar
  31   18   32 1
  32   19   20 ar
  33   19   21 1
  34   20   33 1
  35   22   23 1
  36   23   34 1
  37   23   35 1
  38   23   36 1

#	End of record

