#	Name: ASD06170217
#	Creating user name:	WinNT
#	Creation time:	15. 06. 2019 21:05

#	Modifying user name:	WinNT
#	Modification time:	15. 06. 2019 21:05

#	Program:	/corina/corina34_cracker 3.40 0067  02.08.2006

@<TRIPOS>MOLECULE
ASD06170217
  67   71    0    0    0
SMALL
NO_CHARGES


@<TRIPOS>ATOM
   1 C1             0.1934     1.1244    -0.0873 C.2     
   2 C2             0.3212    -0.2176    -0.5182 C.2     
   3 C3             1.5944    -0.6916    -0.8815 C.2     
   4 C4             2.6906     0.1870    -0.8022 C.2     
   5 C5             2.5082     1.4584    -0.3834 C.2     
   6 N6             1.2793     1.9177    -0.0322 N.am    
   7 C7            -0.8503    -1.0962    -0.5841 C.2     
   8 O8            -0.7588    -2.1948    -1.0998 O.2     
   9 N9            -2.0288    -0.6875    -0.0735 N.am    
  10 O10           -0.8995     1.5626     0.2288 O.2     
  11 N11            1.7647    -1.9885    -1.3055 N.pl3   
  12 C12            3.0646    -2.4261    -1.8205 C.3     
  13 C13           -3.1673    -1.4785    -0.2272 C.ar    
  14 C14           -3.0303    -2.8354    -0.4984 C.ar    
  15 C15           -4.1658    -3.6106    -0.6485 C.ar    
  16 C16           -5.4097    -2.9970    -0.5212 C.ar    
  17 C17           -5.4693    -1.6395    -0.2502 C.ar    
  18 N18           -4.3657    -0.9305    -0.1080 N.ar    
  19 O19           -6.5518    -3.7213    -0.6616 O.3     
  20 N20           -7.8039    -5.9671     2.5633 N.ar    
  21 C21           -6.6851    -5.2843     2.6291 C.ar    
  22 C22           -6.2314    -4.5171     1.5636 C.ar    
  23 C23           -6.9696    -4.4621     0.3944 C.ar    
  24 C24           -8.1725    -5.2012     0.3350 C.ar    
  25 C25           -8.9741    -5.1952    -0.8163 C.ar    
  26 C26          -10.1296    -5.9215    -0.8386 C.ar    
  27 C27          -10.5232    -6.6734     0.2776 C.ar    
  28 C28           -9.7618    -6.6967     1.4104 C.ar    
  29 C29           -8.5672    -5.9596     1.4640 C.ar    
  30 O30          -11.6780    -7.3880     0.2312 O.3     
  31 C31          -12.0265    -8.1343     1.3990 C.3     
  32 O32          -10.9070    -5.9155    -1.9543 O.3     
  33 C33          -10.4521    -5.1297    -3.0577 C.3     
  34 C34            1.1325     3.3050     0.4153 C.3     
  35 C35            1.3124     3.3724     1.9100 C.ar    
  36 C36            2.5702     3.5758     2.4463 C.ar    
  37 C37            2.7352     3.6376     3.8173 C.ar    
  38 C38            1.6424     3.4965     4.6521 C.ar    
  39 C39            0.3846     3.2940     4.1158 C.ar    
  40 C40            0.2189     3.2366     2.7446 C.ar    
  41 H41            3.6778    -0.1552    -1.0757 H       
  42 H42            3.3573     2.1233    -0.3263 H       
  43 H43           -2.0851     0.1567     0.4009 H       
  44 H44            1.0243    -2.6137    -1.2636 H       
  45 H45            3.0076    -3.4766    -2.1055 H       
  46 H46            3.3306    -1.8272    -2.6915 H       
  47 H47            3.8227    -2.3000    -1.0475 H       
  48 H48           -2.0497    -3.2783    -0.5910 H       
  49 H49           -4.0898    -4.6670    -0.8599 H       
  50 H50           -6.4303    -1.1568    -0.1505 H       
  51 H51           -6.1008    -5.3198     3.5367 H       
  52 H52           -5.3069    -3.9652     1.6476 H       
  53 H53           -8.6787    -4.6186    -1.6804 H       
  54 H54          -10.0770    -7.2799     2.2630 H       
  55 H55          -12.1358    -7.4555     2.2448 H       
  56 H56          -12.9676    -8.6571     1.2287 H       
  57 H57          -11.2418    -8.8595     1.6142 H       
  58 H58          -10.3707    -4.0867    -2.7519 H       
  59 H59           -9.4762    -5.4903    -3.3827 H       
  60 H60          -11.1625    -5.2127    -3.8802 H       
  61 H61            1.8866     3.9249    -0.0698 H       
  62 H62            0.1392     3.6685     0.1521 H       
  63 H63            3.4240     3.6860     1.7941 H       
  64 H64            3.7180     3.7957     4.2364 H       
  65 H65            1.7715     3.5441     5.7233 H       
  66 H66           -0.4692     3.1835     4.7679 H       
  67 H67           -0.7644     3.0821     2.3254 H       
@<TRIPOS>BOND
   1    1    2 1
   2    1    6 am
   3    1   10 2
   4    2    3 2
   5    2    7 1
   6    3    4 1
   7    3   11 1
   8    4    5 2
   9    4   41 1
  10    5    6 1
  11    5   42 1
  12    6   34 1
  13    7    8 2
  14    7    9 am
  15    9   13 1
  16    9   43 1
  17   11   12 1
  18   11   44 1
  19   12   45 1
  20   12   46 1
  21   12   47 1
  22   13   14 ar
  23   13   18 ar
  24   14   15 ar
  25   14   48 1
  26   15   16 ar
  27   15   49 1
  28   16   17 ar
  29   16   19 1
  30   17   18 ar
  31   17   50 1
  32   19   23 1
  33   20   21 ar
  34   20   29 ar
  35   21   22 ar
  36   21   51 1
  37   22   23 ar
  38   22   52 1
  39   23   24 ar
  40   24   25 ar
  41   24   29 ar
  42   25   26 ar
  43   25   53 1
  44   26   27 ar
  45   26   32 1
  46   27   28 ar
  47   27   30 1
  48   28   29 ar
  49   28   54 1
  50   30   31 1
  51   31   55 1
  52   31   56 1
  53   31   57 1
  54   32   33 1
  55   33   58 1
  56   33   59 1
  57   33   60 1
  58   34   35 1
  59   34   61 1
  60   34   62 1
  61   35   36 ar
  62   35   40 ar
  63   36   37 ar
  64   36   63 1
  65   37   38 ar
  66   37   64 1
  67   38   39 ar
  68   38   65 1
  69   39   40 ar
  70   39   66 1
  71   40   67 1

#	End of record

