#	Name: ASD03200025
#	Creating user name:	WinNT
#	Creation time:	15. 06. 2019 20:34

#	Modifying user name:	WinNT
#	Modification time:	15. 06. 2019 20:34

#	Program:	/corina/corina34_cracker 3.40 0067  02.08.2006

@<TRIPOS>MOLECULE
ASD03200025
  48   51    0    0    0
SMALL
NO_CHARGES


@<TRIPOS>ATOM
   1 C1             0.9764    -1.0300    -0.0719 C.3     
   2 N2            -0.0317     0.0358    -0.0074 N.3     
   3 C3             0.2651     0.9826     1.0751 C.3     
   4 C4             1.6153     1.6533     0.8120 C.3     
   5 C5             2.7056     0.5810     0.7334 C.3     
   6 C6             2.3479    -0.4195    -0.3691 C.3     
   7 C7            -1.3129    -0.4961     0.1314 C.ar    
   8 C8            -2.0495    -0.2917     1.2955 C.ar    
   9 C9            -3.3145    -0.8348     1.3944 C.ar    
  10 N10           -3.8299    -1.5404     0.4056 N.ar    
  11 C11           -3.1683    -1.7594    -0.7152 C.ar    
  12 C12           -1.8954    -1.2450    -0.8980 C.ar    
  13 N13           -1.1972    -1.4800    -2.0902 N.am    
  14 C14           -1.3570    -2.6466    -2.7460 C.2     
  15 C15           -0.7270    -2.8440    -4.0537 C.2     
  16 O16           -2.0251    -3.5363    -2.2516 O.2     
  17 C17           -0.8524    -4.0117    -4.7731 C.2     
  18 S18            0.0533    -3.8277    -6.2731 S.3     
  19 C19            0.5209    -2.1979    -5.8017 C.2     
  20 N20            0.0111    -1.9056    -4.6487 N.2     
  21 C21            1.3667    -1.2931    -6.6076 C.ar    
  22 N22           -1.5629    -5.1304    -4.3864 N.pl3   
  23 C23            1.8602    -1.7109    -7.8467 C.ar    
  24 C24            2.6507    -0.8588    -8.5945 C.ar    
  25 C25            2.9541     0.4043    -8.1194 C.ar    
  26 C26            2.4695     0.8251    -6.8941 C.ar    
  27 C27            1.6726    -0.0131    -6.1373 C.ar    
  28 F28            1.5657    -2.9446    -8.3119 F       
  29 F29            1.1999     0.3998    -4.9410 F       
  30 H30            1.0117    -1.5548     0.8829 H       
  31 H31            0.7124    -1.7323    -0.8625 H       
  32 H32           -0.5156     1.7422     1.1174 H       
  33 H33            0.3037     0.4485     2.0244 H       
  34 H34            1.5731     2.1991    -0.1305 H       
  35 H35            1.8426     2.3445     1.6236 H       
  36 H36            3.6620     1.0503     0.5031 H       
  37 H37            2.7746     0.0609     1.6888 H       
  38 H38            3.0985    -1.2092    -0.4014 H       
  39 H39            2.3171     0.0937    -1.3303 H       
  40 H40           -1.6361     0.2840     2.1104 H       
  41 H41           -3.8908    -0.6803     2.2946 H       
  42 H42           -3.6264    -2.3425    -1.5005 H       
  43 H43           -0.5989    -0.8031    -2.4433 H       
  44 H44           -2.0320    -5.1376    -3.5374 H       
  45 H45           -1.5931    -5.9093    -4.9637 H       
  46 H46            3.0328    -1.1802    -9.5522 H       
  47 H47            3.5729     1.0653    -8.7081 H       
  48 H48            2.7111     1.8127    -6.5297 H       
@<TRIPOS>BOND
   1    1    2 1
   2    1    6 1
   3    1   30 1
   4    1   31 1
   5    2    3 1
   6    2    7 1
   7    3    4 1
   8    3   32 1
   9    3   33 1
  10    4    5 1
  11    4   34 1
  12    4   35 1
  13    5    6 1
  14    5   36 1
  15    5   37 1
  16    6   38 1
  17    6   39 1
  18    7    8 ar
  19    7   12 ar
  20    8    9 ar
  21    8   40 1
  22    9   10 ar
  23    9   41 1
  24   10   11 ar
  25   11   12 ar
  26   11   42 1
  27   12   13 1
  28   13   14 am
  29   13   43 1
  30   14   15 1
  31   14   16 2
  32   15   17 2
  33   15   20 1
  34   17   18 1
  35   17   22 1
  36   18   19 1
  37   19   20 2
  38   19   21 1
  39   21   23 ar
  40   21   27 ar
  41   22   44 1
  42   22   45 1
  43   23   24 ar
  44   23   28 1
  45   24   25 ar
  46   24   46 1
  47   25   26 ar
  48   25   47 1
  49   26   27 ar
  50   26   48 1
  51   27   29 1

#	End of record

