#	Name: ASD01912318
#	Creating user name:	WinNT
#	Creation time:	15. 06. 2019 19:59

#	Modifying user name:	WinNT
#	Modification time:	15. 06. 2019 19:59

#	Program:	/corina/corina34_cracker 3.40 0067  02.08.2006

@<TRIPOS>MOLECULE
ASD01912318
  54   57    0    0    0
SMALL
NO_CHARGES


@<TRIPOS>ATOM
   1 C1            -0.0162     1.3410     0.0094 C.2     
   2 N2             0.0021    -0.0041     0.0020 N.am    
   3 C3             1.2637    -0.4708    -0.0125 C.2     
   4 C4             2.1916     0.6799    -0.0152 C.ar    
   5 C5             3.5709     0.8108    -0.0273 C.ar    
   6 C6             4.1413     2.0742    -0.0256 C.ar    
   7 C7             3.3438     3.2031    -0.0119 C.ar    
   8 C8             1.9626     3.0875     0.0003 C.ar    
   9 C9             1.3783     1.8310    -0.0013 C.ar    
  10 O10           -1.0118     2.0364     0.0181 O.2     
  11 O11            1.5863    -1.6416    -0.0213 O.2     
  12 C12           -1.1944    -0.8494     0.0093 C.3     
  13 C13           -1.6253    -1.1359    -1.4305 C.3     
  14 C14           -2.8561    -2.0054    -1.4230 C.2     
  15 O15           -3.3409    -2.3610    -0.3697 O.2     
  16 N16           -3.4180    -2.3880    -2.5867 N.am    
  17 C17           -4.6175    -3.2353    -2.5891 C.3     
  18 C18           -5.7319    -2.5113    -3.3553 C.3     
  19 C19           -5.1717    -2.0353    -4.6777 C.2     
  20 C20           -3.9065    -1.2057    -4.6660 C.3     
  21 C21           -2.8414    -1.9574    -3.8669 C.3     
  22 C22           -5.7775    -2.3396    -5.8246 C.2     
  23 C23           -5.2321    -1.8800    -7.0664 C.1     
  24 C24           -4.7850    -1.5032    -8.0844 C.1     
  25 C25           -4.2397    -1.0435    -9.3261 C.ar    
  26 C26           -4.8793    -1.3657   -10.5267 C.ar    
  27 C27           -4.3396    -0.9140   -11.7169 C.ar    
  28 C28           -3.1778    -0.1543   -11.6728 C.ar    
  29 C29           -2.5962     0.1280   -10.4503 C.ar    
  30 N30           -3.1313    -0.3086    -9.3288 N.ar    
  31 C31           -1.3355     0.9521   -10.4003 C.3     
  32 H32            4.1990    -0.0677    -0.0376 H       
  33 H33            5.2164     2.1772    -0.0346 H       
  34 H34            3.8001     4.1820    -0.0103 H       
  35 H35            1.3444     3.9730     0.0113 H       
  36 H36           -0.9726    -1.7886     0.5160 H       
  37 H37           -1.9995    -0.3349     0.5340 H       
  38 H38           -1.8471    -0.1966    -1.9371 H       
  39 H39           -0.8202    -1.6504    -1.9551 H       
  40 H40           -4.3942    -4.1834    -3.0783 H       
  41 H41           -4.9382    -3.4176    -1.5635 H       
  42 H42           -6.5602    -3.1971    -3.5333 H       
  43 H43           -6.0805    -1.6567    -2.7755 H       
  44 H44           -3.5597    -1.0509    -5.6877 H       
  45 H45           -4.1035    -0.2426    -4.1950 H       
  46 H46           -1.9930    -1.2985    -3.6823 H       
  47 H47           -2.5130    -2.8299    -4.4316 H       
  48 H48           -6.6798    -2.9330    -5.8178 H       
  49 H49           -5.7817    -1.9591   -10.5247 H       
  50 H50           -4.8110    -1.1471   -12.6602 H       
  51 H51           -2.7322     0.2125   -12.5856 H       
  52 H52           -1.5945     2.0077   -10.3183 H       
  53 H53           -0.7416     0.6555    -9.5358 H       
  54 H54           -0.7585     0.7893   -11.3106 H       
@<TRIPOS>BOND
   1    1    2 am
   2    1    9 1
   3    1   10 2
   4    2    3 am
   5    2   12 1
   6    3    4 1
   7    3   11 2
   8    4    5 ar
   9    4    9 ar
  10    5    6 ar
  11    5   32 1
  12    6    7 ar
  13    6   33 1
  14    7    8 ar
  15    7   34 1
  16    8    9 ar
  17    8   35 1
  18   12   13 1
  19   12   36 1
  20   12   37 1
  21   13   14 1
  22   13   38 1
  23   13   39 1
  24   14   15 2
  25   14   16 am
  26   16   17 1
  27   16   21 1
  28   17   18 1
  29   17   40 1
  30   17   41 1
  31   18   19 1
  32   18   42 1
  33   18   43 1
  34   19   20 1
  35   19   22 2
  36   20   21 1
  37   20   44 1
  38   20   45 1
  39   21   46 1
  40   21   47 1
  41   22   23 1
  42   22   48 1
  43   23   24 3
  44   24   25 1
  45   25   26 ar
  46   25   30 ar
  47   26   27 ar
  48   26   49 1
  49   27   28 ar
  50   27   50 1
  51   28   29 ar
  52   28   51 1
  53   29   30 ar
  54   29   31 1
  55   31   52 1
  56   31   53 1
  57   31   54 1

#	End of record

