#	Name: ASD02408110
#	Creating user name:	WinNT
#	Creation time:	15. 06. 2019 20:21

#	Modifying user name:	WinNT
#	Modification time:	15. 06. 2019 20:21

#	Program:	/corina/corina34_cracker 3.40 0067  02.08.2006

@<TRIPOS>MOLECULE
ASD02408110
  48   50    0    0    0
SMALL
NO_CHARGES


@<TRIPOS>ATOM
   1 C1            -0.4215     2.2429     0.0180 C.ar    
   2 C2            -0.6778     0.9036    -0.2017 C.ar    
   3 C3             0.9974     2.7507     0.0081 C.3     
   4 C4             1.5275     2.7876     1.4183 C.2     
   5 N5             2.7875     3.2148     1.6293 N.am    
   6 N6             0.7487     2.4096     2.3953 N.2     
   7 C7             1.1657     2.4218     3.6678 C.2     
   8 C8             2.4711     2.8511     3.9590 C.2     
   9 C9             3.2945     3.2613     2.8792 C.2     
  10 N10            0.3260     2.0194     4.6772 N.pl3   
  11 C11           -0.5566     0.8584     4.4987 C.3     
  12 O12            4.4354     3.6429     3.0753 O.2     
  13 C13           -1.9796     0.4369    -0.1927 C.ar    
  14 C14           -3.0274     1.3092     0.0361 C.ar    
  15 C15           -2.7763     2.6499     0.2560 C.ar    
  16 C16           -1.4718     3.1214     0.2422 C.ar    
  17 O17           -1.2222     4.4397     0.4583 O.3     
  18 C18           -2.3511     5.2837     0.6931 C.3     
  19 C19           -1.8761     6.7213     0.9135 C.3     
  20 C20           -1.9945     1.2782     4.8195 C.3     
  21 C21           -2.0416     1.8940     6.2198 C.3     
  22 C22           -1.1540     3.1401     6.2610 C.3     
  23 C23            0.2975     2.7380     5.9585 C.3     
  24 O24           -3.3871     2.2573     6.5352 O.3     
  25 C25            2.9545     2.8788     5.3067 C.1     
  26 N26            3.3381     2.9008     6.3757 N.1     
  27 H27            0.1391     0.2202    -0.3811 H       
  28 H28            1.6166     2.0871    -0.5955 H       
  29 H29            1.0210     3.7548    -0.4153 H       
  30 H30            3.3346     3.4908     0.8773 H       
  31 H31           -0.4989     0.5108     3.4672 H       
  32 H32           -0.2500     0.0592     5.1735 H       
  33 H33           -2.1779    -0.6106    -0.3652 H       
  34 H34           -4.0432     0.9423     0.0426 H       
  35 H35           -3.5953     3.3310     0.4344 H       
  36 H36           -3.0164     5.2491    -0.1696 H       
  37 H37           -2.8855     4.9379     1.5780 H       
  38 H38           -1.2108     6.7559     1.7763 H       
  39 H39           -1.3417     7.0670     0.0286 H       
  40 H40           -2.7372     7.3651     1.0927 H       
  41 H41           -2.3311     2.0125     4.0877 H       
  42 H42           -2.6451     0.4043     4.7844 H       
  43 H43           -1.6815     1.1675     6.9483 H       
  44 H44           -1.4985     3.8569     5.5155 H       
  45 H45           -1.2063     3.5914     7.2518 H       
  46 H46            0.6713     2.0930     6.7537 H       
  47 H47            0.9172     3.6320     5.8885 H       
  48 H48           -3.4924     2.6549     7.4103 H       
@<TRIPOS>BOND
   1    1    2 ar
   2    1    3 1
   3    1   16 ar
   4    2   13 ar
   5    2   27 1
   6    3    4 1
   7    3   28 1
   8    3   29 1
   9    4    5 1
  10    4    6 2
  11    5    9 am
  12    5   30 1
  13    6    7 1
  14    7    8 2
  15    7   10 1
  16    8    9 1
  17    8   25 1
  18    9   12 2
  19   10   11 1
  20   10   23 1
  21   11   20 1
  22   11   31 1
  23   11   32 1
  24   13   14 ar
  25   13   33 1
  26   14   15 ar
  27   14   34 1
  28   15   16 ar
  29   15   35 1
  30   16   17 1
  31   17   18 1
  32   18   19 1
  33   18   36 1
  34   18   37 1
  35   19   38 1
  36   19   39 1
  37   19   40 1
  38   20   21 1
  39   20   41 1
  40   20   42 1
  41   21   22 1
  42   21   24 1
  43   21   43 1
  44   22   23 1
  45   22   44 1
  46   22   45 1
  47   23   46 1
  48   23   47 1
  49   24   48 1
  50   25   26 3

#	End of record

