#	Name: ASD01410679
#	Creating user name:	WinNT
#	Creation time:	15. 06. 2019 19:18

#	Modifying user name:	WinNT
#	Modification time:	15. 06. 2019 19:18

#	Program:	/corina/corina34_cracker 3.40 0067  02.08.2006

@<TRIPOS>MOLECULE
ASD01410679
  66   69    0    0    0
SMALL
NO_CHARGES


@<TRIPOS>ATOM
   1 C1             1.0872     3.3213    -1.5276 C.ar    
   2 C2             1.1678     2.3192    -2.4845 C.ar    
   3 C3             2.2369     1.4454    -2.4593 C.ar    
   4 N4             3.1769     1.5532    -1.5400 N.ar    
   5 C5             3.1351     2.4949    -0.6116 C.ar    
   6 C6             2.0891     3.4081    -0.5765 C.ar    
   7 O7             4.1232     2.5692     0.3150 O.3     
   8 C8             5.0749     1.5976     0.3129 C.ar    
   9 C9             6.1343     1.6654    -0.5886 C.ar    
  10 C10            7.1065     0.6825    -0.5984 C.ar    
  11 C11            7.0318    -0.3792     0.2914 C.ar    
  12 C12            5.9659    -0.4524     1.2023 C.ar    
  13 C13            4.9908     0.5495     1.2088 C.ar    
  14 F14            6.2120     2.6964    -1.4582 F       
  15 N15            8.0110    -1.3699     0.2808 N.am    
  16 C16            8.9045    -1.4451     1.2870 C.2     
  17 C17            8.0697    -2.3300    -0.8242 C.3     
  18 O18            8.7939    -0.7166     2.2535 O.2     
  19 C19           10.0206    -2.4153     1.2151 C.ar    
  20 N20           10.3660    -2.9353     0.0431 N.ar    
  21 C21           11.3506    -3.7996    -0.0648 C.ar    
  22 C22           12.0699    -4.2028     1.0513 C.ar    
  23 C23           11.7417    -3.6837     2.2952 C.ar    
  24 C24           10.7029    -2.7703     2.3769 C.ar    
  25 C25            8.4639    -1.6028    -2.1113 C.3     
  26 C26            6.6977    -2.9821    -1.0066 C.3     
  27 C27            0.0999     2.1858    -3.5394 C.3     
  28 O28            6.4039    -3.7990     0.1285 O.3     
  29 C29            5.1376    -4.4576     0.0585 C.3     
  30 C30            9.8691    -1.0176    -1.9566 C.3     
  31 N31            0.4651     2.9897    -4.7084 N.pl3   
  32 Cl32          13.3672    -5.3454     0.8926 Cl      
  33 N33            0.1415     4.2228    -4.8771 N.2     
  34 N34            1.1577     2.5599    -5.7031 N.2     
  35 C35            1.2990     3.5357    -6.5714 C.2     
  36 C36            0.6284     4.6331    -6.0263 C.2     
  37 C37            2.0456     4.4791     0.4828 C.3     
  38 F38            0.9024     5.2654     0.3043 F       
  39 F39            2.0084     3.8826     1.7477 F       
  40 F40            3.1856     5.2834     0.3798 F       
  41 C41            5.8787    -1.5757     2.1503 C.2     
  42 O42            6.7849    -2.3824     2.2217 O.2     
  43 O43            4.7939    -1.7094     2.9389 O.3     
  44 H44            0.2639     4.0202    -1.5279 H       
  45 H45            2.3041     0.6636    -3.2015 H       
  46 H46            7.9254     0.7412    -1.3002 H       
  47 H47            4.1685     0.4995     1.9071 H       
  48 H48            8.8100    -3.0979    -0.5994 H       
  49 H49           11.6027    -4.2016    -1.0350 H       
  50 H50           12.2862    -3.9813     3.1791 H       
  51 H51           10.4205    -2.3460     3.3290 H       
  52 H52            8.4529    -2.3061    -2.9440 H       
  53 H53            7.7547    -0.7983    -2.3059 H       
  54 H54            5.9371    -2.2074    -1.1034 H       
  55 H55            6.7050    -3.5984    -1.9056 H       
  56 H56            0.0071     1.1400    -3.8322 H       
  57 H57           -0.8514     2.5370    -3.1397 H       
  58 H58            5.1125    -5.1045    -0.8184 H       
  59 H59            4.9898    -5.0572     0.9567 H       
  60 H60            4.3447    -3.7134    -0.0162 H       
  61 H61           10.5915    -1.8280    -1.8590 H       
  62 H62           10.1117    -0.4182    -2.8341 H       
  63 H63            9.9051    -0.3896    -1.0664 H       
  64 H64            1.8282     3.4981    -7.5121 H       
  65 H65            0.5298     5.6169    -6.4608 H       
  66 H66            4.7820    -2.4626     3.5452 H       
@<TRIPOS>BOND
   1    1    2 ar
   2    1    6 ar
   3    1   44 1
   4    2    3 ar
   5    2   27 1
   6    3    4 ar
   7    3   45 1
   8    4    5 ar
   9    5    6 ar
  10    5    7 1
  11    6   37 1
  12    7    8 1
  13    8    9 ar
  14    8   13 ar
  15    9   10 ar
  16    9   14 1
  17   10   11 ar
  18   10   46 1
  19   11   12 ar
  20   11   15 1
  21   12   13 ar
  22   12   41 1
  23   13   47 1
  24   15   16 am
  25   15   17 1
  26   16   18 2
  27   16   19 1
  28   17   25 1
  29   17   26 1
  30   17   48 1
  31   19   20 ar
  32   19   24 ar
  33   20   21 ar
  34   21   22 ar
  35   21   49 1
  36   22   23 ar
  37   22   32 1
  38   23   24 ar
  39   23   50 1
  40   24   51 1
  41   25   30 1
  42   25   52 1
  43   25   53 1
  44   26   28 1
  45   26   54 1
  46   26   55 1
  47   27   31 1
  48   27   56 1
  49   27   57 1
  50   28   29 1
  51   29   58 1
  52   29   59 1
  53   29   60 1
  54   30   61 1
  55   30   62 1
  56   30   63 1
  57   31   34 1
  58   31   33 1
  59   33   36 2
  60   34   35 2
  61   35   36 1
  62   35   64 1
  63   36   65 1
  64   37   38 1
  65   37   39 1
  66   37   40 1
  67   41   42 2
  68   41   43 1
  69   43   66 1

#	End of record

