#	Name: ASD01885626
#	Creating user name:	WinNT
#	Creation time:	15. 06. 2019 19:49

#	Modifying user name:	WinNT
#	Modification time:	15. 06. 2019 19:49

#	Program:	/corina/corina34_cracker 3.40 0067  02.08.2006

@<TRIPOS>MOLECULE
ASD01885626
  41   44    0    0    0
SMALL
NO_CHARGES


@<TRIPOS>ATOM
   1 C1            -0.9429     0.4072     0.5705 C.ar    
   2 C2            -0.6195    -0.9406     0.4261 C.ar    
   3 C3             0.6784    -1.3397     0.3124 C.ar    
   4 C4             0.0259     1.3618     0.6018 C.ar    
   5 C5             3.0643    -0.7616     0.2245 C.ar    
   6 C6             4.0227     0.2431     0.2606 C.ar    
   7 C7             3.6201     1.5741     0.4078 C.ar    
   8 N8             2.3464     1.9050     0.5143 N.ar    
   9 C9             3.4525    -2.1820     0.0703 C.2     
  10 C10            4.6496     2.6407     0.4459 C.2     
  11 O11            5.8262     2.3530     0.3497 O.2     
  12 N12            4.2803     3.9291     0.5873 N.am    
  13 C13            3.1570    -2.9903    -0.9920 C.2     
  14 N14            3.6914    -4.2037    -0.7411 N.pl3   
  15 N15            4.3330    -4.1519     0.5021 N.2     
  16 C16            4.2002    -2.9473     0.9898 C.2     
  17 C17            1.3787     0.9882     0.4868 C.ar    
  18 C18            1.7028    -0.3843     0.3404 C.ar    
  19 C19            2.3760    -2.5978    -2.2196 C.3     
  20 C20            3.6165    -5.3235    -1.5805 C.ar    
  21 C21            3.7788    -5.1772    -2.9517 C.ar    
  22 C22            3.7050    -6.2827    -3.7763 C.ar    
  23 C23            3.4697    -7.5343    -3.2376 C.ar    
  24 C24            3.3071    -7.6832    -1.8724 C.ar    
  25 C25            3.3856    -6.5823    -1.0421 C.ar    
  26 H26           -1.9793     0.6989     0.6545 H       
  27 H27           -1.4078    -1.6785     0.4043 H       
  28 H28            0.9163    -2.3873     0.2017 H       
  29 H29           -0.2416     2.4021     0.7140 H       
  30 H30            5.0711    -0.0020     0.1759 H       
  31 H31            3.3410     4.1587     0.6641 H       
  32 H32            4.9537     4.6268     0.6122 H       
  33 H33            4.5919    -2.5988     1.9341 H       
  34 H34            3.0661    -2.3057    -3.0112 H       
  35 H35            1.7760    -3.4439    -2.5545 H       
  36 H36            1.7211    -1.7597    -1.9810 H       
  37 H37            3.9623    -4.1998    -3.3730 H       
  38 H38            3.8308    -6.1694    -4.8429 H       
  39 H39            3.4124    -8.3973    -3.8844 H       
  40 H40            3.1231    -8.6620    -1.4547 H       
  41 H41            3.2589    -6.6993     0.0241 H       
@<TRIPOS>BOND
   1    1    2 ar
   2    1    4 ar
   3    1   26 1
   4    2    3 ar
   5    2   27 1
   6    3   18 ar
   7    3   28 1
   8    4   17 ar
   9    4   29 1
  10    5    6 ar
  11    5    9 1
  12    5   18 ar
  13    6    7 ar
  14    6   30 1
  15    7    8 ar
  16    7   10 1
  17    8   17 ar
  18    9   13 2
  19    9   16 1
  20   10   11 2
  21   10   12 am
  22   12   31 1
  23   12   32 1
  24   13   14 1
  25   13   19 1
  26   14   15 1
  27   14   20 1
  28   15   16 2
  29   16   33 1
  30   17   18 ar
  31   19   34 1
  32   19   35 1
  33   19   36 1
  34   20   21 ar
  35   20   25 ar
  36   21   22 ar
  37   21   37 1
  38   22   23 ar
  39   22   38 1
  40   23   24 ar
  41   23   39 1
  42   24   25 ar
  43   24   40 1
  44   25   41 1

#	End of record

