#	Name: ASD07301111
#	Creating user name:	WinNT
#	Creation time:	15. 06. 2019 21:11

#	Modifying user name:	WinNT
#	Modification time:	15. 06. 2019 21:11

#	Program:	/corina/corina34_cracker 3.40 0067  02.08.2006

@<TRIPOS>MOLECULE
ASD07301111
  43   45    0    0    0
SMALL
NO_CHARGES


@<TRIPOS>ATOM
   1 C1            -0.0179     1.4664     0.0101 C.2     
   2 C2             0.0021    -0.0041     0.0020 C.2     
   3 C3             1.2775    -0.6366    -0.0136 C.2     
   4 C4             2.3788     0.1586    -0.0198 C.2     
   5 N5             2.2598     1.5100    -0.0114 N.pl3   
   6 N6             1.1315     2.1178     0.0026 N.2     
   7 O7            -1.0313    -0.6548     0.0088 O.2     
   8 O8             1.3895    -1.9914    -0.0215 O.3     
   9 C9             2.7118    -2.5330    -0.0370 C.3     
  10 C10            3.4279     2.2791    -0.0184 C.ar    
  11 C11            3.6386     3.2342     0.9723 C.ar    
  12 C12            4.7941     3.9939     0.9639 C.ar    
  13 C13            5.7438     3.8024    -0.0345 C.ar    
  14 C14            5.5313     2.8488    -1.0219 C.ar    
  15 C15            4.3807     2.0862    -1.0107 C.ar    
  16 N16            6.9122     4.5701    -0.0443 N.3     
  17 C17            8.1046     3.7163     0.0586 C.3     
  18 C18            9.3594     4.5903    -0.0158 C.3     
  19 O19            9.3091     5.5769     1.0184 O.3     
  20 C20            8.1608     6.4265     0.9481 C.3     
  21 C21            6.8938     5.5711     1.0323 C.3     
  22 F22            5.0003     4.9216     1.9241 F       
  23 F23            2.7149     3.4190     1.9408 F       
  24 C24           -1.2914     2.1969     0.0202 C.2     
  25 O25           -2.3402     1.5875     0.0218 O.2     
  26 C26           -1.2956     3.7039     0.0284 C.3     
  27 H27            3.3609    -0.2904    -0.0312 H       
  28 H28            3.2514    -2.1997     0.8494 H       
  29 H29            2.6585    -3.6217    -0.0420 H       
  30 H30            3.2341    -2.1908    -0.9304 H       
  31 H31            6.2691     2.7008    -1.7966 H       
  32 H32            4.2191     1.3421    -1.7766 H       
  33 H33            8.0889     3.1822     1.0086 H       
  34 H34            8.1110     2.9997    -0.7626 H       
  35 H35           10.2445     3.9684     0.1173 H       
  36 H36            9.4027     5.0831    -0.9871 H       
  37 H37            8.1791     7.1325     1.7784 H       
  38 H38            8.1692     6.9726     0.0048 H       
  39 H39            6.0164     6.2084     0.9218 H       
  40 H40            6.8588     5.0666     1.9979 H       
  41 H41           -0.2690     4.0701     0.0255 H       
  42 H42           -1.8147     4.0706    -0.8572 H       
  43 H43           -1.8062     4.0610     0.9227 H       
@<TRIPOS>BOND
   1    1    2 1
   2    1    6 2
   3    1   24 1
   4    2    3 1
   5    2    7 2
   6    3    4 2
   7    3    8 1
   8    4    5 1
   9    4   27 1
  10    5    6 1
  11    5   10 1
  12    8    9 1
  13    9   28 1
  14    9   29 1
  15    9   30 1
  16   10   11 ar
  17   10   15 ar
  18   11   12 ar
  19   11   23 1
  20   12   13 ar
  21   12   22 1
  22   13   14 ar
  23   13   16 1
  24   14   15 ar
  25   14   31 1
  26   15   32 1
  27   16   17 1
  28   16   21 1
  29   17   18 1
  30   17   33 1
  31   17   34 1
  32   18   19 1
  33   18   35 1
  34   18   36 1
  35   19   20 1
  36   20   21 1
  37   20   37 1
  38   20   38 1
  39   21   39 1
  40   21   40 1
  41   24   25 2
  42   24   26 1
  43   26   41 1
  44   26   42 1
  45   26   43 1

#	End of record

