#	Name: ASD03080184
#	Creating user name:	WinNT
#	Creation time:	15. 06. 2019 20:26

#	Modifying user name:	WinNT
#	Modification time:	15. 06. 2019 20:26

#	Program:	/corina/corina34_cracker 3.40 0067  02.08.2006

@<TRIPOS>MOLECULE
ASD03080184
  33   34    0    0    0
SMALL
NO_CHARGES


@<TRIPOS>ATOM
   1 C1            -0.0167     1.3809     0.0096 C.ar    
   2 C2             0.0021    -0.0041     0.0020 C.ar    
   3 C3             1.2173    -0.6643    -0.0131 C.ar    
   4 C4             2.3890     0.1018    -0.0202 C.ar    
   5 C5             2.2855     1.4926    -0.0117 C.ar    
   6 N6             1.1048     2.0768     0.0027 N.ar    
   7 C7             3.7142    -0.5527    -0.0358 C.2     
   8 C8             4.8169     0.1832    -0.0424 C.2     
   9 N9             9.0465    -0.2563    -0.0881 N.3     
  10 C10            8.3282    -0.6896    -1.2934 C.3     
  11 C11            6.9347    -0.0573    -1.3132 C.3     
  12 C12            6.1680    -0.4841    -0.0583 C.3     
  13 C13            6.9610    -0.0638     1.1823 C.3     
  14 C14            8.3537    -0.6958     1.1298 C.3     
  15 C15           10.4363    -0.7320    -0.1040 C.3     
  16 Cl16          -1.5394     2.2145     0.0213 Cl      
  17 H17           -0.9223    -0.5625     0.0082 H       
  18 H18            1.2611    -1.7433    -0.0190 H       
  19 H19            3.1812     2.0960    -0.0170 H       
  20 H20            3.7842    -1.6304    -0.0419 H       
  21 H21            4.7469     1.2609    -0.0363 H       
  22 H22            8.8818    -0.3762    -2.1785 H       
  23 H23            8.2343    -1.7755    -1.2895 H       
  24 H24            7.0279     1.0285    -1.3310 H       
  25 H25            6.3960    -0.3915    -2.2000 H       
  26 H26            6.0397    -1.5665    -0.0603 H       
  27 H27            7.0546     1.0220     1.2037 H       
  28 H28            6.4412    -0.4025     2.0784 H       
  29 H29            8.2597    -1.7817     1.1223 H       
  30 H30            8.9259    -0.3870     2.0046 H       
  31 H31           10.9477    -0.3306    -0.9789 H       
  32 H32           10.9453    -0.3971     0.7998 H       
  33 H33           10.4471    -1.8212    -0.1447 H       
@<TRIPOS>BOND
   1    1    2 ar
   2    1    6 ar
   3    1   16 1
   4    2    3 ar
   5    2   17 1
   6    3    4 ar
   7    3   18 1
   8    4    5 ar
   9    4    7 1
  10    5    6 ar
  11    5   19 1
  12    7    8 2
  13    7   20 1
  14    8   12 1
  15    8   21 1
  16    9   10 1
  17    9   14 1
  18    9   15 1
  19   10   11 1
  20   10   22 1
  21   10   23 1
  22   11   12 1
  23   11   24 1
  24   11   25 1
  25   12   13 1
  26   12   26 1
  27   13   14 1
  28   13   27 1
  29   13   28 1
  30   14   29 1
  31   14   30 1
  32   15   31 1
  33   15   32 1
  34   15   33 1

#	End of record

