#	Name: ASD03331607
#	Creating user name:	WinNT
#	Creation time:	15. 06. 2019 20:39

#	Modifying user name:	WinNT
#	Modification time:	15. 06. 2019 20:39

#	Program:	/corina/corina34_cracker 3.40 0067  02.08.2006

@<TRIPOS>MOLECULE
ASD03331607
  67   70    0    0    0
SMALL
NO_CHARGES


@<TRIPOS>ATOM
   1 C1            -0.1401     1.4267     2.3998 C.ar    
   2 C2            -0.1711    -0.0325     2.1593 C.2     
   3 N3            -1.2266    -0.8564     2.3973 N.pl3   
   4 C4            -0.8575    -2.1112     2.0464 C.2     
   5 C5             0.4221    -2.0469     1.5976 C.2     
   6 N6             0.8152    -0.7539     1.6735 N.2     
   7 C7             1.2330    -3.1772     1.1115 C.2     
   8 N8             2.4971    -2.9688     0.6930 N.am    
   9 C9            -2.5533    -0.5008     2.9386 C.3     
  10 C10           -2.6913    -1.2192     4.2907 C.3     
  11 C11           -3.0597    -2.6696     4.0947 C.3     
  12 N12           -2.0222    -3.5430     3.5886 N.3     
  13 C13           -1.7506    -3.3334     2.1535 C.3     
  14 C14           -0.8969     1.9821     3.4319 C.ar    
  15 O15            0.7616    -4.2981     1.0880 O.2     
  16 C16            3.3033    -4.0926     0.2098 C.3     
  17 C17           -2.3383    -4.9508     3.8645 C.3     
  18 C18           -3.5290    -3.2241     5.4412 C.3     
  19 C19            3.0079    -4.3321    -1.2722 C.3     
  20 C20            4.7657    -3.7738     0.3855 C.2     
  21 C21            3.4439    -3.1100    -2.0831 C.3     
  22 C22            3.7773    -5.5641    -1.7530 C.3     
  23 C23            1.5073    -4.5615    -1.4626 C.3     
  24 N24            5.6449    -4.7627     0.6413 N.am    
  25 C25           -0.8642     3.3454     3.6520 C.ar    
  26 C26           -0.0804     4.1608     2.8479 C.ar    
  27 C27            0.6719     3.6124     1.8219 C.ar    
  28 C28            0.6508     2.2514     1.5988 C.ar    
  29 F29           -0.0514     5.4938     3.0659 F       
  30 F30           -1.5963     3.8854     4.6507 F       
  31 O31            5.1514    -2.6274     0.2966 O.2     
  32 C32            7.0799    -4.8499     0.9514 C.3     
  33 C33            7.0728    -6.2548     0.3332 C.3     
  34 C34            5.5902    -6.2291     0.7397 C.3     
  35 H35            2.8731    -2.0749     0.7118 H       
  36 H36           -2.6200     0.5778     3.0816 H       
  37 H37           -3.3353    -0.8360     2.2573 H       
  38 H38           -1.7440    -1.1594     4.8265 H       
  39 H39           -3.4667    -0.7290     4.8794 H       
  40 H40           -3.9023    -2.7126     3.4046 H       
  41 H41           -2.6848    -3.1593     1.6196 H       
  42 H42           -1.2413    -4.2039     1.7402 H       
  43 H43           -1.5074     1.3475     4.0572 H       
  44 H44            3.0558    -4.9886     0.7790 H       
  45 H45           -3.3375    -5.1783     3.4931 H       
  46 H46           -1.6107    -5.5910     3.3656 H       
  47 H47           -2.3012    -5.1276     4.9394 H       
  48 H48           -4.3052    -2.5771     5.8500 H       
  49 H49           -3.9295    -4.2281     5.3010 H       
  50 H50           -2.6867    -3.2622     6.1319 H       
  51 H51            4.5130    -2.9466    -1.9475 H       
  52 H52            3.2335    -3.2807    -3.1389 H       
  53 H53            2.8958    -2.2323    -1.7406 H       
  54 H54            3.5177    -6.4203    -1.1304 H       
  55 H55            3.5139    -5.7753    -2.7894 H       
  56 H56            4.8482    -5.3744    -1.6816 H       
  57 H57            0.9592    -3.6838    -1.1201 H       
  58 H58            1.2969    -4.7321    -2.5184 H       
  59 H59            1.1967    -5.4321    -0.8849 H       
  60 H60            1.2797     4.2513     1.1985 H       
  61 H61            1.2380     1.8257     0.7986 H       
  62 H62            7.6879    -4.1348     0.3972 H       
  63 H63            7.2940    -4.8470     2.0201 H       
  64 H64            7.2443    -6.2704    -0.7432 H       
  65 H65            7.6708    -6.9857     0.8776 H       
  66 H66            5.4112    -6.5933     1.7514 H       
  67 H67            4.9302    -6.6873     0.0032 H       
@<TRIPOS>BOND
   1    1    2 1
   2    1   14 ar
   3    1   28 ar
   4    2    3 1
   5    2    6 2
   6    3    4 1
   7    3    9 1
   8    4    5 2
   9    4   13 1
  10    5    6 1
  11    5    7 1
  12    7    8 am
  13    7   15 2
  14    8   16 1
  15    8   35 1
  16    9   10 1
  17    9   36 1
  18    9   37 1
  19   10   11 1
  20   10   38 1
  21   10   39 1
  22   11   12 1
  23   11   18 1
  24   11   40 1
  25   12   13 1
  26   12   17 1
  27   13   41 1
  28   13   42 1
  29   14   25 ar
  30   14   43 1
  31   16   19 1
  32   16   20 1
  33   16   44 1
  34   17   45 1
  35   17   46 1
  36   17   47 1
  37   18   48 1
  38   18   49 1
  39   18   50 1
  40   19   21 1
  41   19   22 1
  42   19   23 1
  43   20   24 am
  44   20   31 2
  45   21   51 1
  46   21   52 1
  47   21   53 1
  48   22   54 1
  49   22   55 1
  50   22   56 1
  51   23   57 1
  52   23   58 1
  53   23   59 1
  54   24   32 1
  55   24   34 1
  56   25   26 ar
  57   25   30 1
  58   26   27 ar
  59   26   29 1
  60   27   28 ar
  61   27   60 1
  62   28   61 1
  63   32   33 1
  64   32   62 1
  65   32   63 1
  66   33   34 1
  67   33   64 1
  68   33   65 1
  69   34   66 1
  70   34   67 1

#	End of record

